s*Heading
**
** Job name: fml_frm_sc8r_deg0_vis00025_std Model name: BluntNotch
*Preprint, echo=NO, model=NO, history=NO, contact=NO
**
** PARTS
**
*Part, name=Part-1
*End Part
**  
*Part, name=Part-2
*End Part
**  
**
** ASSEMBLY
**
*Assembly, name=Assembly
**  
*Instance, name=Part-1-1, part=Part-1
*Node
      1,         150.,          10.,  0.300000012
      2,          10.,          10.,  0.300000012
      3,          10.,           0.,  0.300000012
      4,         150.,           0.,  0.300000012
      5,          10.,           0.,  0.300999999
      6,         150.,           0.,  0.300999999
      7,         150.,          10.,  0.300999999
      8,          10.,          10.,  0.300999999
      9,          10.,           0.,  0.425999999
     10,         150.,           0.,  0.425999999
     11,         150.,          10.,  0.425999999
     12,          10.,          10.,  0.425999999
     13,          10.,           0.,  0.426999986
     14,         150.,           0.,  0.426999986
     15,         150.,          10.,  0.426999986
     16,          10.,          10.,  0.426999986
     17,          10.,           0.,  0.551999986
     18,         150.,           0.,  0.551999986
     19,         150.,          10.,  0.551999986
     20,          10.,          10.,  0.551999986
** ... 12524 like lines cut
*Element, type=COH3D8
  1,    1,   81, 2217,  210,    7,  276, 2931,  275
  2,   81,   82, 2218, 2217,  276,  277, 2932, 2931
  3,   82,   83, 2219, 2218,  277,  278, 2933, 2932
  4,   83,   84, 2220, 2219,  278,  279, 2934, 2933
  5,   84,   85, 2221, 2220,  279,  280, 2935, 2934
  6,   85,   86, 2222, 2221,  280,  281, 2936, 2935
  7,   86,   87, 2223, 2222,  281,  282, 2937, 2936
  8,   87,   88, 2224, 2223,  282,  283, 2938, 2937
  9,   88,   89, 2225, 2224,  283,  284, 2939, 2938
 10,   89,   90, 2226, 2225,  284,  285, 2940, 2939
 11,   90,   91, 2227, 2226,  285,  286, 2941, 2940
 12,   91,   92, 2228, 2227,  286,  287, 2942, 2941
 13,   92,   93, 2229, 2228,  287,  288, 2943, 2942
 14,   93,   94, 2230, 2229,  288,  289, 2944, 2943
 15,   94,   95, 2231, 2230,  289,  290, 2945, 2944
 16,   95,   96, 2232, 2231,  290,  291, 2946, 2945
 17,   96,   97, 2233, 2232,  291,  292, 2947, 2946
 18,   97,   98, 2234, 2233,  292,  293, 2948, 2947
 19,   98,   99, 2235, 2234,  293,  294, 2949, 2948
 20,   99,  100, 2236, 2235,  294,  295, 2950, 2949
** ... 4393 like lines cut
*Element, type=SC8R
 781,    7,  276, 2931,  275,   11,  406, 3645,  405
 782,  276,  277, 2932, 2931,  406,  407, 3646, 3645
 783,  277,  278, 2933, 2932,  407,  408, 3647, 3646
 784,  278,  279, 2934, 2933,  408,  409, 3648, 3647
 785,  279,  280, 2935, 2934,  409,  410, 3649, 3648
 786,  280,  281, 2936, 2935,  410,  411, 3650, 3649
 787,  281,  282, 2937, 2936,  411,  412, 3651, 3650
 788,  282,  283, 2938, 2937,  412,  413, 3652, 3651
 789,  283,  284, 2939, 2938,  413,  414, 3653, 3652
 790,  284,  285, 2940, 2939,  414,  415, 3654, 3653
 791,  285,  286, 2941, 2940,  415,  416, 3655, 3654
 792,  286,  287, 2942, 2941,  416,  417, 3656, 3655
 793,  287,  288, 2943, 2942,  417,  418, 3657, 3656
 794,  288,  289, 2944, 2943,  418,  419, 3658, 3657
 795,  289,  290, 2945, 2944,  419,  420, 3659, 3658
 796,  290,  291, 2946, 2945,  420,  421, 3660, 3659
 797,  291,  292, 2947, 2946,  421,  422, 3661, 3660
 798,  292,  293, 2948, 2947,  422,  423, 3662, 3661
 799,  293,  294, 2949, 2948,  423,  424, 3663, 3662
 800,  294,  295, 2950, 2949,  424,  425, 3664, 3663
** ... 2922 like lines cut
*Element, type=C3D8I
3901,   23,  796, 5787,  795,   25,  861, 6501,  990
3902,  796,  797, 5788, 5787,  861,  862, 6502, 6501
3903,  797,  798, 5789, 5788,  862,  863, 6503, 6502
3904,  798,  799, 5790, 5789,  863,  864, 6504, 6503
3905,  799,  800, 5791, 5790,  864,  865, 6505, 6504
3906,  800,  801, 5792, 5791,  865,  866, 6506, 6505
3907,  801,  802, 5793, 5792,  866,  867, 6507, 6506
3908,  802,  803, 5794, 5793,  867,  868, 6508, 6507
3909,  803,  804, 5795, 5794,  868,  869, 6509, 6508
3910,  804,  805, 5796, 5795,  869,  870, 6510, 6509
3911,  805,  806, 5797, 5796,  870,  871, 6511, 6510
3912,  806,  807, 5798, 5797,  871,  872, 6512, 6511
3913,  807,  808, 5799, 5798,  872,  873, 6513, 6512
3914,  808,  809, 5800, 5799,  873,  874, 6514, 6513
3915,  809,  810, 5801, 5800,  874,  875, 6515, 6514
3916,  810,  811, 5802, 5801,  875,  876, 6516, 6515
3917,  811,  812, 5803, 5802,  876,  877, 6517, 6516
3918,  812,  813, 5804, 5803,  877,  878, 6518, 6517
3919,  813,  814, 5805, 5804,  878,  879, 6519, 6518
3920,  814,  815, 5806, 5805,  879,  880, 6520, 6519
** ... 2922 like lines cut
*Nset, nset=aluminum_ext
     1,     2,     3,     4,    29,    30,    43,    44,    45,    46,    47,    48,    49,    50,    51,    52
    53,    66,    67,    68,    81,    82,    83,    84,    85,    86,    87,    88,    89,    90,    91,    92
    93,    94,    95,    96,    97,    98,    99,   100,   101,   102,   103,   104,   105,   106,   107,   108
   109,   110,   111,   112,   113,   114,   115,   116,   117,   118,   119,   120,   121,   122,   123,   124
   125,   126,   127,   128,   129,   130,   131,   132,   133,   134,   135,   136,   137,   138,   139,   140
   141,   142,   143,   144,   145,   146,   147,   148,   149,   150,   151,   152,   153,   154,   155,   156
   157,   158,   159,   160,   161,   162,   163,   164,   165,   166,   167,   168,   169,   170,   171,   172
   173,   174,   175,   176,   177,   178,   179,   180,   181,   182,   183,   184,   185,   186,   187,   188
   189,   190,   191,   192,   193,   194,   195,   196,   197,   198,   199,   200,   201,   202,   203,   204
   205,   206,   207,   208,   209,   210,   991,   992,   993,   994,   995,   996,   997,   998,   999,  1000
  1001,  1002,  1003,  1004,  1005,  1006,  1007,  1008,  1009,  1010,  1011,  1012,  1013,  1014,  1015,  1016
  1017,  1018,  1019,  1020,  1021,  1022,  1023,  1024,  1025,  1026,  1027,  1028,  1029,  1030,  1031,  1032
  1033,  1034,  1035,  1036,  1037,  1038,  1039,  1040,  1041,  1042,  1043,  1044,  1045,  1046,  1047,  1048
  1049,  1050,  1051,  1418,  1419,  1420,  1421,  1422,  1423,  1424,  1425,  1426,  1427,  1428,  1429,  1430
  1431,  1432,  1433,  1434,  1435,  1436,  1437,  1438,  1439,  1440,  1441,  1442,  1443,  1444,  1445,  1446
  1447,  1448,  1449,  1450,  1451,  1452,  1453,  1454,  1455,  1456,  1457,  1458,  1459,  1460,  1461,  1462
  1463,  1464,  1465,  1466,  1467,  1468,  1469,  1470,  1471,  1472,  1473,  1474,  1475,  1476,  1477,  1478
  1479,  1480,  1481,  1482,  1483,  1484,  1485,  1486,  1487,  1488,  1489,  1490,  1491,  1492,  1493,  1494
  1495,  1496,  1497,  1498,  1499,  1500,  1501,  1502,  1503,  1504,  1505,  1506,  1507,  1508,  1509,  1510
  1511,  1512,  1513,  1514,  1515,  1516,  1517,  1518,  1519,  1520,  1521,  1522,  1523,  1524,  1525,  1526
** ... 176 like lines cut
*Elset, elset=aluminum_ext
 6553, 6554, 6555, 6556, 6557, 6558, 6559, 6560, 6561, 6562, 6563, 6564, 6565, 6566, 6567, 6568
 6569, 6570, 6571, 6572, 6573, 6574, 6575, 6576, 6577, 6578, 6579, 6580, 6581, 6582, 6583, 6584
 6585, 6586, 6587, 6588, 6589, 6590, 6591, 6592, 6593, 6594, 6595, 6596, 6597, 6598, 6599, 6600
 6601, 6602, 6603, 6604, 6605, 6606, 6607, 6608, 6609, 6610, 6611, 6612, 6613, 6614, 6615, 6616
 6617, 6618, 6619, 6620, 6621, 6622, 6623, 6624, 6625, 6626, 6627, 6628, 6629, 6630, 6631, 6632
 6633, 6634, 6635, 6636, 6637, 6638, 6639, 6640, 6641, 6642, 6643, 6644, 6645, 6646, 6647, 6648
 6649, 6650, 6651, 6652, 6653, 6654, 6655, 6656, 6657, 6658, 6659, 6660, 6661, 6662, 6663, 6664
 6665, 6666, 6667, 6668, 6669, 6670, 6671, 6672, 6673, 6674, 6675, 6676, 6677, 6678, 6679, 6680
 6681, 6682, 6683, 6684, 6685, 6686, 6687, 6688, 6689, 6690, 6691, 6692, 6693, 6694, 6695, 6696
 6697, 6698, 6699, 6700, 6701, 6702, 6703, 6704, 6705, 6706, 6707, 6708, 6709, 6710, 6711, 6712
 6713, 6714, 6715, 6716, 6717, 6718, 6719, 6720, 6721, 6722, 6723, 6724, 6725, 6726, 6727, 6728
 6729, 6730, 6731, 6732, 6733, 6734, 6735, 6736, 6737, 6738, 6739, 6740, 6741, 6742, 6743, 6744
 6745, 6746, 6747, 6748, 6749, 6750, 6751, 6752, 6753, 6754, 6755, 6756, 6757, 6758, 6759, 6760
 6761, 6762, 6763, 6764, 6765, 6766, 6767, 6768, 6769, 6770, 6771, 6772, 6773, 6774, 6775, 6776
 6777, 6778, 6779, 6780, 6781, 6782, 6783, 6784, 6785, 6786, 6787, 6788, 6789, 6790, 6791, 6792
 6793, 6794, 6795, 6796, 6797, 6798, 6799, 6800, 6801, 6802, 6803, 6804, 6805, 6806, 6807, 6808
 6809, 6810, 6811, 6812, 6813, 6814, 6815, 6816, 6817, 6818, 6819, 6820, 6821, 6822, 6823, 6824
 6825, 6826, 6827, 6828, 6829, 6830, 6831, 6832, 6833, 6834, 6835, 6836, 6837, 6838, 6839, 6840
 6841, 6842, 6843, 6844, 6845, 6846, 6847, 6848, 6849, 6850, 6851, 6852, 6853, 6854, 6855, 6856
 6857, 6858, 6859, 6860, 6861, 6862, 6863, 6864, 6865, 6866, 6867, 6868, 6869, 6870, 6871, 6872
** ... 72 like lines cut
*Nset, nset=cohesive_ext
     1,     2,     3,     4,     5,     6,     7,     8,    29,    30,    31,    32,    43,    44,    45,    53
    54,    55,    69,    70,    81,    82,    83,    84,    85,    86,    87,    88,    89,    90,    91,    92
    93,    94,    95,    96,    97,    98,    99,   100,   101,   102,   103,   104,   105,   106,   107,   108
   109,   110,   111,   112,   113,   114,   115,   116,   117,   118,   119,   120,   121,   122,   123,   124
   125,   126,   127,   128,   129,   130,   131,   132,   133,   134,   135,   136,   137,   138,   139,   140
   141,   142,   143,   144,   145,   146,   147,   148,   149,   150,   151,   152,   153,   154,   155,   156
   157,   158,   159,   160,   161,   162,   163,   164,   165,   166,   167,   168,   169,   170,   171,   172
   173,   174,   175,   176,   177,   178,   179,   180,   181,   182,   183,   184,   185,   186,   187,   188
   189,   190,   191,   192,   193,   194,   195,   196,   197,   198,   199,   200,   201,   202,   203,   204
   205,   206,   207,   208,   209,   210,   211,   212,   213,   214,   215,   216,   217,   218,   219,   220
   221,   222,   223,   224,   225,   226,   227,   228,   229,   230,   231,   232,   233,   234,   235,   236
   237,   238,   239,   240,   241,   242,   243,   244,   245,   246,   247,   248,   249,   250,   251,   252
   253,   254,   255,   256,   257,   258,   259,   260,   261,   262,   263,   264,   265,   266,   267,   268
   269,   270,   271,   272,   273,   274,   275,   276,   277,   278,   279,   280,   281,   282,   283,   284
   285,   286,   287,   288,   289,   290,   291,   292,   293,   294,   295,   296,   297,   298,   299,   300
   301,   302,   303,   304,   305,   306,   307,   308,   309,   310,   311,   312,   313,   314,   315,   316
   317,   318,   319,   320,   321,   322,   323,   324,   325,   326,   327,   328,   329,   330,   331,   332
   333,   334,   335,   336,   337,   338,   339,   340,   991,   992,   993,   994,   995,   996,   997,   998
   999,  1000,  1001,  1002,  1003,  1004,  1005,  1006,  1007,  1008,  1009,  1010,  1011,  1012,  1013,  1014
  1015,  1016,  1017,  1018,  1019,  1020,  1021,  1022,  1023,  1024,  1025,  1026,  1027,  1028,  1029,  1030
** ... 176 like lines cut
*Elset, elset=cohesive_ext
    1,    2,    3,    4,    5,    6,    7,    8,    9,   10,   11,   12,   13,   14,   15,   16
   17,   18,   19,   20,   21,   22,   23,   24,   25,   26,   27,   28,   29,   30,   31,   32
   33,   34,   35,   36,   37,   38,   39,   40,   41,   42,   43,   44,   45,   46,   47,   48
   49,   50,   51,   52,   53,   54,   55,   56,   57,   58,   59,   60,   61,   62,   63,   64
   65,   66,   67,   68,   69,   70,   71,   72,   73,   74,   75,   76,   77,   78,   79,   80
   81,   82,   83,   84,   85,   86,   87,   88,   89,   90,   91,   92,   93,   94,   95,   96
   97,   98,   99,  100,  101,  102,  103,  104,  105,  106,  107,  108,  109,  110,  111,  112
  113,  114,  115,  116,  117,  118,  119,  120,  121,  122,  123,  124,  125,  126,  127,  128
  129,  130,  131,  132,  133,  134,  135,  136,  137,  138,  139,  140,  141,  142,  143,  144
  145,  146,  147,  148,  149,  150,  151,  152,  153,  154,  155,  156,  157,  158,  159,  160
  161,  162,  163,  164,  165,  166,  167,  168,  169,  170,  171,  172,  173,  174,  175,  176
  177,  178,  179,  180,  181,  182,  183,  184,  185,  186,  187,  188,  189,  190,  191,  192
  193,  194,  195,  196,  197,  198,  199,  200,  201,  202,  203,  204,  205,  206,  207,  208
  209,  210,  211,  212,  213,  214,  215,  216,  217,  218,  219,  220,  221,  222,  223,  224
  225,  226,  227,  228,  229,  230,  231,  232,  233,  234,  235,  236,  237,  238,  239,  240
  241,  242,  243,  244,  245,  246,  247,  248,  249,  250,  251,  252,  253,  254,  255,  256
  257,  258,  259,  260,  261,  262,  263,  264,  265,  266,  267,  268,  269,  270,  271,  272
  273,  274,  275,  276,  277,  278,  279,  280,  281,  282,  283,  284,  285,  286,  287,  288
  289,  290,  291,  292,  293,  294,  295,  296,  297,  298,  299,  300,  301,  302,  303,  304
  305,  306,  307,  308,  309,  310,  311,  312,  313,  314,  315,  316,  317,  318,  319,  320
** ... 72 like lines cut
*Nset, nset=composite_ext
     5,     6,     7,     8,     9,    10,    11,    12,    31,    32,    33,    34,    54,    55,    56,    57
    69,    70,    71,    72,   211,   212,   213,   214,   215,   216,   217,   218,   219,   220,   221,   222
   223,   224,   225,   226,   227,   228,   229,   230,   231,   232,   233,   234,   235,   236,   237,   238
   239,   240,   241,   242,   243,   244,   245,   246,   247,   248,   249,   250,   251,   252,   253,   254
   255,   256,   257,   258,   259,   260,   261,   262,   263,   264,   265,   266,   267,   268,   269,   270
   271,   272,   273,   274,   275,   276,   277,   278,   279,   280,   281,   282,   283,   284,   285,   286
   287,   288,   289,   290,   291,   292,   293,   294,   295,   296,   297,   298,   299,   300,   301,   302
   303,   304,   305,   306,   307,   308,   309,   310,   311,   312,   313,   314,   315,   316,   317,   318
   319,   320,   321,   322,   323,   324,   325,   326,   327,   328,   329,   330,   331,   332,   333,   334
   335,   336,   337,   338,   339,   340,   341,   342,   343,   344,   345,   346,   347,   348,   349,   350
   351,   352,   353,   354,   355,   356,   357,   358,   359,   360,   361,   362,   363,   364,   365,   366
   367,   368,   369,   370,   371,   372,   373,   374,   375,   376,   377,   378,   379,   380,   381,   382
   383,   384,   385,   386,   387,   388,   389,   390,   391,   392,   393,   394,   395,   396,   397,   398
   399,   400,   401,   402,   403,   404,   405,   406,   407,   408,   409,   410,   411,   412,   413,   414
   415,   416,   417,   418,   419,   420,   421,   422,   423,   424,   425,   426,   427,   428,   429,   430
   431,   432,   433,   434,   435,   436,   437,   438,   439,   440,   441,   442,   443,   444,   445,   446
   447,   448,   449,   450,   451,   452,   453,   454,   455,   456,   457,   458,   459,   460,   461,   462
   463,   464,   465,   466,   467,   468,   469,   470,  1052,  1053,  1054,  1055,  1056,  1057,  1058,  1059
  1060,  1061,  1062,  1063,  1064,  1065,  1066,  1067,  1068,  1069,  1070,  1071,  1072,  1073,  1074,  1075
  1076,  1077,  1078,  1079,  1080,  1081,  1082,  1083,  1084,  1085,  1086,  1087,  1088,  1089,  1090,  1091
** ... 176 like lines cut
*Elset, elset=composite_ext
  781,  782,  783,  784,  785,  786,  787,  788,  789,  790,  791,  792,  793,  794,  795,  796
  797,  798,  799,  800,  801,  802,  803,  804,  805,  806,  807,  808,  809,  810,  811,  812
  813,  814,  815,  816,  817,  818,  819,  820,  821,  822,  823,  824,  825,  826,  827,  828
  829,  830,  831,  832,  833,  834,  835,  836,  837,  838,  839,  840,  841,  842,  843,  844
  845,  846,  847,  848,  849,  850,  851,  852,  853,  854,  855,  856,  857,  858,  859,  860
  861,  862,  863,  864,  865,  866,  867,  868,  869,  870,  871,  872,  873,  874,  875,  876
  877,  878,  879,  880,  881,  882,  883,  884,  885,  886,  887,  888,  889,  890,  891,  892
  893,  894,  895,  896,  897,  898,  899,  900,  901,  902,  903,  904,  905,  906,  907,  908
  909,  910,  911,  912,  913,  914,  915,  916,  917,  918,  919,  920,  921,  922,  923,  924
  925,  926,  927,  928,  929,  930,  931,  932,  933,  934,  935,  936,  937,  938,  939,  940
  941,  942,  943,  944,  945,  946,  947,  948,  949,  950,  951,  952,  953,  954,  955,  956
  957,  958,  959,  960,  961,  962,  963,  964,  965,  966,  967,  968,  969,  970,  971,  972
  973,  974,  975,  976,  977,  978,  979,  980,  981,  982,  983,  984,  985,  986,  987,  988
  989,  990,  991,  992,  993,  994,  995,  996,  997,  998,  999, 1000, 1001, 1002, 1003, 1004
 1005, 1006, 1007, 1008, 1009, 1010, 1011, 1012, 1013, 1014, 1015, 1016, 1017, 1018, 1019, 1020
 1021, 1022, 1023, 1024, 1025, 1026, 1027, 1028, 1029, 1030, 1031, 1032, 1033, 1034, 1035, 1036
 1037, 1038, 1039, 1040, 1041, 1042, 1043, 1044, 1045, 1046, 1047, 1048, 1049, 1050, 1051, 1052
 1053, 1054, 1055, 1056, 1057, 1058, 1059, 1060, 1061, 1062, 1063, 1064, 1065, 1066, 1067, 1068
 1069, 1070, 1071, 1072, 1073, 1074, 1075, 1076, 1077, 1078, 1079, 1080, 1081, 1082, 1083, 1084
 1085, 1086, 1087, 1088, 1089, 1090, 1091, 1092, 1093, 1094, 1095, 1096, 1097, 1098, 1099, 1100
** ... 72 like lines cut
*Nset, nset=cohesive_middle
     9,    10,    11,    12,    13,    14,    15,    16,    33,    34,    35,    36,    56,    57,    58,    59
    71,    72,    73,    74,   341,   342,   343,   344,   345,   346,   347,   348,   349,   350,   351,   352
   353,   354,   355,   356,   357,   358,   359,   360,   361,   362,   363,   364,   365,   366,   367,   368
   369,   370,   371,   372,   373,   374,   375,   376,   377,   378,   379,   380,   381,   382,   383,   384
   385,   386,   387,   388,   389,   390,   391,   392,   393,   394,   395,   396,   397,   398,   399,   400
   401,   402,   403,   404,   405,   406,   407,   408,   409,   410,   411,   412,   413,   414,   415,   416
   417,   418,   419,   420,   421,   422,   423,   424,   425,   426,   427,   428,   429,   430,   431,   432
   433,   434,   435,   436,   437,   438,   439,   440,   441,   442,   443,   444,   445,   446,   447,   448
   449,   450,   451,   452,   453,   454,   455,   456,   457,   458,   459,   460,   461,   462,   463,   464
   465,   466,   467,   468,   469,   470,   471,   472,   473,   474,   475,   476,   477,   478,   479,   480
   481,   482,   483,   484,   485,   486,   487,   488,   489,   490,   491,   492,   493,   494,   495,   496
   497,   498,   499,   500,   501,   502,   503,   504,   505,   506,   507,   508,   509,   510,   511,   512
   513,   514,   515,   516,   517,   518,   519,   520,   521,   522,   523,   524,   525,   526,   527,   528
   529,   530,   531,   532,   533,   534,   535,   536,   537,   538,   539,   540,   541,   542,   543,   544
   545,   546,   547,   548,   549,   550,   551,   552,   553,   554,   555,   556,   557,   558,   559,   560
   561,   562,   563,   564,   565,   566,   567,   568,   569,   570,   571,   572,   573,   574,   575,   576
   577,   578,   579,   580,   581,   582,   583,   584,   585,   586,   587,   588,   589,   590,   591,   592
   593,   594,   595,   596,   597,   598,   599,   600,  1113,  1114,  1115,  1116,  1117,  1118,  1119,  1120
  1121,  1122,  1123,  1124,  1125,  1126,  1127,  1128,  1129,  1130,  1131,  1132,  1133,  1134,  1135,  1136
  1137,  1138,  1139,  1140,  1141,  1142,  1143,  1144,  1145,  1146,  1147,  1148,  1149,  1150,  1151,  1152
** ... 176 like lines cut
*Elset, elset=cohesive_middle
 1561, 1562, 1563, 1564, 1565, 1566, 1567, 1568, 1569, 1570, 1571, 1572, 1573, 1574, 1575, 1576
 1577, 1578, 1579, 1580, 1581, 1582, 1583, 1584, 1585, 1586, 1587, 1588, 1589, 1590, 1591, 1592
 1593, 1594, 1595, 1596, 1597, 1598, 1599, 1600, 1601, 1602, 1603, 1604, 1605, 1606, 1607, 1608
 1609, 1610, 1611, 1612, 1613, 1614, 1615, 1616, 1617, 1618, 1619, 1620, 1621, 1622, 1623, 1624
 1625, 1626, 1627, 1628, 1629, 1630, 1631, 1632, 1633, 1634, 1635, 1636, 1637, 1638, 1639, 1640
 1641, 1642, 1643, 1644, 1645, 1646, 1647, 1648, 1649, 1650, 1651, 1652, 1653, 1654, 1655, 1656
 1657, 1658, 1659, 1660, 1661, 1662, 1663, 1664, 1665, 1666, 1667, 1668, 1669, 1670, 1671, 1672
 1673, 1674, 1675, 1676, 1677, 1678, 1679, 1680, 1681, 1682, 1683, 1684, 1685, 1686, 1687, 1688
 1689, 1690, 1691, 1692, 1693, 1694, 1695, 1696, 1697, 1698, 1699, 1700, 1701, 1702, 1703, 1704
 1705, 1706, 1707, 1708, 1709, 1710, 1711, 1712, 1713, 1714, 1715, 1716, 1717, 1718, 1719, 1720
 1721, 1722, 1723, 1724, 1725, 1726, 1727, 1728, 1729, 1730, 1731, 1732, 1733, 1734, 1735, 1736
 1737, 1738, 1739, 1740, 1741, 1742, 1743, 1744, 1745, 1746, 1747, 1748, 1749, 1750, 1751, 1752
 1753, 1754, 1755, 1756, 1757, 1758, 1759, 1760, 1761, 1762, 1763, 1764, 1765, 1766, 1767, 1768
 1769, 1770, 1771, 1772, 1773, 1774, 1775, 1776, 1777, 1778, 1779, 1780, 1781, 1782, 1783, 1784
 1785, 1786, 1787, 1788, 1789, 1790, 1791, 1792, 1793, 1794, 1795, 1796, 1797, 1798, 1799, 1800
 1801, 1802, 1803, 1804, 1805, 1806, 1807, 1808, 1809, 1810, 1811, 1812, 1813, 1814, 1815, 1816
 1817, 1818, 1819, 1820, 1821, 1822, 1823, 1824, 1825, 1826, 1827, 1828, 1829, 1830, 1831, 1832
 1833, 1834, 1835, 1836, 1837, 1838, 1839, 1840, 1841, 1842, 1843, 1844, 1845, 1846, 1847, 1848
 1849, 1850, 1851, 1852, 1853, 1854, 1855, 1856, 1857, 1858, 1859, 1860, 1861, 1862, 1863, 1864
 1865, 1866, 1867, 1868, 1869, 1870, 1871, 1872, 1873, 1874, 1875, 1876, 1877, 1878, 1879, 1880
** ... 72 like lines cut
*Nset, nset=composite_int
    13,    14,    15,    16,    17,    18,    19,    20,    35,    36,    37,    38,    58,    59,    60,    61
    73,    74,    75,    76,   471,   472,   473,   474,   475,   476,   477,   478,   479,   480,   481,   482
   483,   484,   485,   486,   487,   488,   489,   490,   491,   492,   493,   494,   495,   496,   497,   498
   499,   500,   501,   502,   503,   504,   505,   506,   507,   508,   509,   510,   511,   512,   513,   514
   515,   516,   517,   518,   519,   520,   521,   522,   523,   524,   525,   526,   527,   528,   529,   530
   531,   532,   533,   534,   535,   536,   537,   538,   539,   540,   541,   542,   543,   544,   545,   546
   547,   548,   549,   550,   551,   552,   553,   554,   555,   556,   557,   558,   559,   560,   561,   562
   563,   564,   565,   566,   567,   568,   569,   570,   571,   572,   573,   574,   575,   576,   577,   578
   579,   580,   581,   582,   583,   584,   585,   586,   587,   588,   589,   590,   591,   592,   593,   594
   595,   596,   597,   598,   599,   600,   601,   602,   603,   604,   605,   606,   607,   608,   609,   610
   611,   612,   613,   614,   615,   616,   617,   618,   619,   620,   621,   622,   623,   624,   625,   626
   627,   628,   629,   630,   631,   632,   633,   634,   635,   636,   637,   638,   639,   640,   641,   642
   643,   644,   645,   646,   647,   648,   649,   650,   651,   652,   653,   654,   655,   656,   657,   658
   659,   660,   661,   662,   663,   664,   665,   666,   667,   668,   669,   670,   671,   672,   673,   674
   675,   676,   677,   678,   679,   680,   681,   682,   683,   684,   685,   686,   687,   688,   689,   690
   691,   692,   693,   694,   695,   696,   697,   698,   699,   700,   701,   702,   703,   704,   705,   706
   707,   708,   709,   710,   711,   712,   713,   714,   715,   716,   717,   718,   719,   720,   721,   722
   723,   724,   725,   726,   727,   728,   729,   730,  1174,  1175,  1176,  1177,  1178,  1179,  1180,  1181
  1182,  1183,  1184,  1185,  1186,  1187,  1188,  1189,  1190,  1191,  1192,  1193,  1194,  1195,  1196,  1197
  1198,  1199,  1200,  1201,  1202,  1203,  1204,  1205,  1206,  1207,  1208,  1209,  1210,  1211,  1212,  1213
** ... 176 like lines cut
*Elset, elset=composite_int
 2341, 2342, 2343, 2344, 2345, 2346, 2347, 2348, 2349, 2350, 2351, 2352, 2353, 2354, 2355, 2356
 2357, 2358, 2359, 2360, 2361, 2362, 2363, 2364, 2365, 2366, 2367, 2368, 2369, 2370, 2371, 2372
 2373, 2374, 2375, 2376, 2377, 2378, 2379, 2380, 2381, 2382, 2383, 2384, 2385, 2386, 2387, 2388
 2389, 2390, 2391, 2392, 2393, 2394, 2395, 2396, 2397, 2398, 2399, 2400, 2401, 2402, 2403, 2404
 2405, 2406, 2407, 2408, 2409, 2410, 2411, 2412, 2413, 2414, 2415, 2416, 2417, 2418, 2419, 2420
 2421, 2422, 2423, 2424, 2425, 2426, 2427, 2428, 2429, 2430, 2431, 2432, 2433, 2434, 2435, 2436
 2437, 2438, 2439, 2440, 2441, 2442, 2443, 2444, 2445, 2446, 2447, 2448, 2449, 2450, 2451, 2452
 2453, 2454, 2455, 2456, 2457, 2458, 2459, 2460, 2461, 2462, 2463, 2464, 2465, 2466, 2467, 2468
 2469, 2470, 2471, 2472, 2473, 2474, 2475, 2476, 2477, 2478, 2479, 2480, 2481, 2482, 2483, 2484
 2485, 2486, 2487, 2488, 2489, 2490, 2491, 2492, 2493, 2494, 2495, 2496, 2497, 2498, 2499, 2500
 2501, 2502, 2503, 2504, 2505, 2506, 2507, 2508, 2509, 2510, 2511, 2512, 2513, 2514, 2515, 2516
 2517, 2518, 2519, 2520, 2521, 2522, 2523, 2524, 2525, 2526, 2527, 2528, 2529, 2530, 2531, 2532
 2533, 2534, 2535, 2536, 2537, 2538, 2539, 2540, 2541, 2542, 2543, 2544, 2545, 2546, 2547, 2548
 2549, 2550, 2551, 2552, 2553, 2554, 2555, 2556, 2557, 2558, 2559, 2560, 2561, 2562, 2563, 2564
 2565, 2566, 2567, 2568, 2569, 2570, 2571, 2572, 2573, 2574, 2575, 2576, 2577, 2578, 2579, 2580
 2581, 2582, 2583, 2584, 2585, 2586, 2587, 2588, 2589, 2590, 2591, 2592, 2593, 2594, 2595, 2596
 2597, 2598, 2599, 2600, 2601, 2602, 2603, 2604, 2605, 2606, 2607, 2608, 2609, 2610, 2611, 2612
 2613, 2614, 2615, 2616, 2617, 2618, 2619, 2620, 2621, 2622, 2623, 2624, 2625, 2626, 2627, 2628
 2629, 2630, 2631, 2632, 2633, 2634, 2635, 2636, 2637, 2638, 2639, 2640, 2641, 2642, 2643, 2644
 2645, 2646, 2647, 2648, 2649, 2650, 2651, 2652, 2653, 2654, 2655, 2656, 2657, 2658, 2659, 2660
** ... 72 like lines cut
*Nset, nset=cohesive_int
    17,    18,    19,    20,    21,    22,    23,    24,    37,    38,    39,    40,    60,    61,    62,    63
    75,    76,    77,    78,   601,   602,   603,   604,   605,   606,   607,   608,   609,   610,   611,   612
   613,   614,   615,   616,   617,   618,   619,   620,   621,   622,   623,   624,   625,   626,   627,   628
   629,   630,   631,   632,   633,   634,   635,   636,   637,   638,   639,   640,   641,   642,   643,   644
   645,   646,   647,   648,   649,   650,   651,   652,   653,   654,   655,   656,   657,   658,   659,   660
   661,   662,   663,   664,   665,   666,   667,   668,   669,   670,   671,   672,   673,   674,   675,   676
   677,   678,   679,   680,   681,   682,   683,   684,   685,   686,   687,   688,   689,   690,   691,   692
   693,   694,   695,   696,   697,   698,   699,   700,   701,   702,   703,   704,   705,   706,   707,   708
   709,   710,   711,   712,   713,   714,   715,   716,   717,   718,   719,   720,   721,   722,   723,   724
   725,   726,   727,   728,   729,   730,   731,   732,   733,   734,   735,   736,   737,   738,   739,   740
   741,   742,   743,   744,   745,   746,   747,   748,   749,   750,   751,   752,   753,   754,   755,   756
   757,   758,   759,   760,   761,   762,   763,   764,   765,   766,   767,   768,   769,   770,   771,   772
   773,   774,   775,   776,   777,   778,   779,   780,   781,   782,   783,   784,   785,   786,   787,   788
   789,   790,   791,   792,   793,   794,   795,   796,   797,   798,   799,   800,   801,   802,   803,   804
   805,   806,   807,   808,   809,   810,   811,   812,   813,   814,   815,   816,   817,   818,   819,   820
   821,   822,   823,   824,   825,   826,   827,   828,   829,   830,   831,   832,   833,   834,   835,   836
   837,   838,   839,   840,   841,   842,   843,   844,   845,   846,   847,   848,   849,   850,   851,   852
   853,   854,   855,   856,   857,   858,   859,   860,  1235,  1236,  1237,  1238,  1239,  1240,  1241,  1242
  1243,  1244,  1245,  1246,  1247,  1248,  1249,  1250,  1251,  1252,  1253,  1254,  1255,  1256,  1257,  1258
  1259,  1260,  1261,  1262,  1263,  1264,  1265,  1266,  1267,  1268,  1269,  1270,  1271,  1272,  1273,  1274
** ... 176 like lines cut
*Elset, elset=cohesive_int
  3121,  3122,  3123,  3124,  3125,  3126,  3127,  3128,  3129,  3130,  3131,  3132,  3133,  3134,  3135,  3136
  3137,  3138,  3139,  3140,  3141,  3142,  3143,  3144,  3145,  3146,  3147,  3148,  3149,  3150,  3151,  3152
  3153,  3154,  3155,  3156,  3157,  3158,  3159,  3160,  3161,  3162,  3163,  3164,  3165,  3166,  3167,  3168
  3169,  3170,  3171,  3172,  3173,  3174,  3175,  3176,  3177,  3178,  3179,  3180,  3181,  3182,  3183,  3184
  3185,  3186,  3187,  3188,  3189,  3190,  3191,  3192,  3193,  3194,  3195,  3196,  3197,  3198,  3199,  3200
  3201,  3202,  3203,  3204,  3205,  3206,  3207,  3208,  3209,  3210,  3211,  3212,  3213,  3214,  3215,  3216
  3217,  3218,  3219,  3220,  3221,  3222,  3223,  3224,  3225,  3226,  3227,  3228,  3229,  3230,  3231,  3232
  3233,  3234,  3235,  3236,  3237,  3238,  3239,  3240,  3241,  3242,  3243,  3244,  3245,  3246,  3247,  3248
  3249,  3250,  3251,  3252,  3253,  3254,  3255,  3256,  3257,  3258,  3259,  3260,  3261,  3262,  3263,  3264
  3265,  3266,  3267,  3268,  3269,  3270,  3271,  3272,  3273,  3274,  3275,  3276,  3277,  3278,  3279,  3280
  3281,  3282,  3283,  3284,  3285,  3286,  3287,  3288,  3289,  3290,  3291,  3292,  3293,  3294,  3295,  3296
  3297,  3298,  3299,  3300,  3301,  3302,  3303,  3304,  3305,  3306,  3307,  3308,  3309,  3310,  3311,  3312
  3313,  3314,  3315,  3316,  3317,  3318,  3319,  3320,  3321,  3322,  3323,  3324,  3325,  3326,  3327,  3328
  3329,  3330,  3331,  3332,  3333,  3334,  3335,  3336,  3337,  3338,  3339,  3340,  3341,  3342,  3343,  3344
  3345,  3346,  3347,  3348,  3349,  3350,  3351,  3352,  3353,  3354,  3355,  3356,  3357,  3358,  3359,  3360
  3361,  3362,  3363,  3364,  3365,  3366,  3367,  3368,  3369,  3370,  3371,  3372,  3373,  3374,  3375,  3376
  3377,  3378,  3379,  3380,  3381,  3382,  3383,  3384,  3385,  3386,  3387,  3388,  3389,  3390,  3391,  3392
  3393,  3394,  3395,  3396,  3397,  3398,  3399,  3400,  3401,  3402,  3403,  3404,  3405,  3406,  3407,  3408
  3409,  3410,  3411,  3412,  3413,  3414,  3415,  3416,  3417,  3418,  3419,  3420,  3421,  3422,  3423,  3424
  3425,  3426,  3427,  3428,  3429,  3430,  3431,  3432,  3433,  3434,  3435,  3436,  3437,  3438,  3439,  3440
** ... 72 like lines cut
*Nset, nset=aluminum_int
    21,    22,    23,    24,    25,    26,    27,    28,    39,    40,    41,    42,    62,    63,    64,    65
    77,    78,    79,    80,   731,   732,   733,   734,   735,   736,   737,   738,   739,   740,   741,   742
   743,   744,   745,   746,   747,   748,   749,   750,   751,   752,   753,   754,   755,   756,   757,   758
   759,   760,   761,   762,   763,   764,   765,   766,   767,   768,   769,   770,   771,   772,   773,   774
   775,   776,   777,   778,   779,   780,   781,   782,   783,   784,   785,   786,   787,   788,   789,   790
   791,   792,   793,   794,   795,   796,   797,   798,   799,   800,   801,   802,   803,   804,   805,   806
   807,   808,   809,   810,   811,   812,   813,   814,   815,   816,   817,   818,   819,   820,   821,   822
   823,   824,   825,   826,   827,   828,   829,   830,   831,   832,   833,   834,   835,   836,   837,   838
   839,   840,   841,   842,   843,   844,   845,   846,   847,   848,   849,   850,   851,   852,   853,   854
   855,   856,   857,   858,   859,   860,   861,   862,   863,   864,   865,   866,   867,   868,   869,   870
   871,   872,   873,   874,   875,   876,   877,   878,   879,   880,   881,   882,   883,   884,   885,   886
   887,   888,   889,   890,   891,   892,   893,   894,   895,   896,   897,   898,   899,   900,   901,   902
   903,   904,   905,   906,   907,   908,   909,   910,   911,   912,   913,   914,   915,   916,   917,   918
   919,   920,   921,   922,   923,   924,   925,   926,   927,   928,   929,   930,   931,   932,   933,   934
   935,   936,   937,   938,   939,   940,   941,   942,   943,   944,   945,   946,   947,   948,   949,   950
   951,   952,   953,   954,   955,   956,   957,   958,   959,   960,   961,   962,   963,   964,   965,   966
   967,   968,   969,   970,   971,   972,   973,   974,   975,   976,   977,   978,   979,   980,   981,   982
   983,   984,   985,   986,   987,   988,   989,   990,  1296,  1297,  1298,  1299,  1300,  1301,  1302,  1303
  1304,  1305,  1306,  1307,  1308,  1309,  1310,  1311,  1312,  1313,  1314,  1315,  1316,  1317,  1318,  1319
  1320,  1321,  1322,  1323,  1324,  1325,  1326,  1327,  1328,  1329,  1330,  1331,  1332,  1333,  1334,  1335
** ... 176 like lines cut
*Elset, elset=aluminum_int
  3901,  3902,  3903,  3904,  3905,  3906,  3907,  3908,  3909,  3910,  3911,  3912,  3913,  3914,  3915,  3916
  3917,  3918,  3919,  3920,  3921,  3922,  3923,  3924,  3925,  3926,  3927,  3928,  3929,  3930,  3931,  3932
  3933,  3934,  3935,  3936,  3937,  3938,  3939,  3940,  3941,  3942,  3943,  3944,  3945,  3946,  3947,  3948
  3949,  3950,  3951,  3952,  3953,  3954,  3955,  3956,  3957,  3958,  3959,  3960,  3961,  3962,  3963,  3964
  3965,  3966,  3967,  3968,  3969,  3970,  3971,  3972,  3973,  3974,  3975,  3976,  3977,  3978,  3979,  3980
  3981,  3982,  3983,  3984,  3985,  3986,  3987,  3988,  3989,  3990,  3991,  3992,  3993,  3994,  3995,  3996
  3997,  3998,  3999,  4000,  4001,  4002,  4003,  4004,  4005,  4006,  4007,  4008,  4009,  4010,  4011,  4012
  4013,  4014,  4015,  4016,  4017,  4018,  4019,  4020,  4021,  4022,  4023,  4024,  4025,  4026,  4027,  4028
  4029,  4030,  4031,  4032,  4033,  4034,  4035,  4036,  4037,  4038,  4039,  4040,  4041,  4042,  4043,  4044
  4045,  4046,  4047,  4048,  4049,  4050,  4051,  4052,  4053,  4054,  4055,  4056,  4057,  4058,  4059,  4060
  4061,  4062,  4063,  4064,  4065,  4066,  4067,  4068,  4069,  4070,  4071,  4072,  4073,  4074,  4075,  4076
  4077,  4078,  4079,  4080,  4081,  4082,  4083,  4084,  4085,  4086,  4087,  4088,  4089,  4090,  4091,  4092
  4093,  4094,  4095,  4096,  4097,  4098,  4099,  4100,  4101,  4102,  4103,  4104,  4105,  4106,  4107,  4108
  4109,  4110,  4111,  4112,  4113,  4114,  4115,  4116,  4117,  4118,  4119,  4120,  4121,  4122,  4123,  4124
  4125,  4126,  4127,  4128,  4129,  4130,  4131,  4132,  4133,  4134,  4135,  4136,  4137,  4138,  4139,  4140
  4141,  4142,  4143,  4144,  4145,  4146,  4147,  4148,  4149,  4150,  4151,  4152,  4153,  4154,  4155,  4156
  4157,  4158,  4159,  4160,  4161,  4162,  4163,  4164,  4165,  4166,  4167,  4168,  4169,  4170,  4171,  4172
  4173,  4174,  4175,  4176,  4177,  4178,  4179,  4180,  4181,  4182,  4183,  4184,  4185,  4186,  4187,  4188
  4189,  4190,  4191,  4192,  4193,  4194,  4195,  4196,  4197,  4198,  4199,  4200,  4201,  4202,  4203,  4204
  4205,  4206,  4207,  4208,  4209,  4210,  4211,  4212,  4213,  4214,  4215,  4216,  4217,  4218,  4219,  4220
** ... 72 like lines cut
** Region: (cohesive_sec_ext:cohesive_ext), (Controls:Default)
** Section: cohesive_sec_ext
*Cohesive Section, elset=cohesive_ext, material=cohesive, response=TRACTION SEPARATION, thickness=SPECIFIED
1., 
*Orientation, name=Ori-1
          0.,          -1.,           0.,           1.,           0.,           0.
3, 0.
** Region: (composite_sec_ext:composite_ext), (Controls:EC-1), (Material Orientation:composite_ext)
** Section: composite_sec_ext
*Shell Section, elset=composite_ext, orientation=Ori-1, controls=EC-1, material=composite, poisson=0.33, thickness modulus=9500.
0.125, 5
*Transverse Shear Stiffness
572.92, 312.5, 0.
** Region: (cohesive_sec_middle:cohesive_middle), (Controls:Default)
** Section: cohesive_sec_middle
*Cohesive Section, elset=cohesive_middle, material=cohesive, response=TRACTION SEPARATION, thickness=SPECIFIED
1., 
*Orientation, name=Ori-2
          1.,           0.,           0.,           0.,           1.,           0.
3, 0.
** Region: (composite_sec_int:composite_int), (Controls:EC-1), (Material Orientation:composite_int)
** Section: composite_sec_int
*Shell Section, elset=composite_int, orientation=Ori-2, controls=EC-1, material=composite, poisson=0.33, thickness modulus=9500.
0.125, 5
*Transverse Shear Stiffness
572.92, 312.5, 0.
** Region: (cohesive_sec_int:cohesive_int), (Controls:Default)
** Section: cohesive_sec_int
*Cohesive Section, elset=cohesive_int, material=cohesive, response=TRACTION SEPARATION, thickness=SPECIFIED
1., 
** Region: (aluminum_sec_int:aluminum_int), (Controls:Default)
** Section: aluminum_sec_int
*Solid Section, elset=aluminum_int, material=aluminum
0.15,
** Region: (aluminum_sec_ext:aluminum_ext), (Controls:Default)
** Section: aluminum_sec_ext
*Solid Section, elset=aluminum_ext, material=aluminum
0.3,
*End Instance
**  
*Instance, name=Part-2-1, part=Part-2
*Node
      1,         151.,           0.,           0.
*Nset, nset=Part-2-1-RefPt_, internal
1, 
*End Instance
**  
*Nset, nset=x-symm, instance=Part-1-1
   43,   44,   46,   50,   53,   54,   55,   56,   57,   58,   59,   60,   61,   62,   63,   64
   65,   66,   69,   71,   73,   75,   77,   79, 1432, 1433, 1434, 1435, 1436, 1437, 1438, 1439
 1440, 1441, 1442, 1443, 1444, 1445, 1446, 1531, 1532, 1533, 1534, 1535, 1536, 1537, 1538, 1539
 1540, 1541, 1542, 1543, 1544, 1545, 1676, 1677, 1678, 1679, 1680, 1709, 1710, 1711, 1712, 1713
 1742, 1743, 1744, 1745, 1746, 1775, 1776, 1777, 1778, 1779, 1808, 1809, 1810, 1811, 1812, 1841
 1842, 1843, 1844, 1845, 1874, 1875, 1876, 1877, 1878, 1879, 1880, 1881, 1882, 1883, 1959, 1960
 1961, 1962, 1963, 1964, 1965, 1966, 1967, 1968, 1969, 1970, 1971, 1972, 1973, 2002, 2003, 2004
 2005, 2006, 2007, 2008, 2009, 2010, 2011, 2012, 2013, 2014, 2015, 2016, 2045, 2046, 2047, 2048
 2049, 2050, 2051, 2052, 2053, 2054, 2055, 2056, 2057, 2058, 2059, 2088, 2089, 2090, 2091, 2092
 2093, 2094, 2095, 2096, 2097, 2098, 2099, 2100, 2101, 2102, 2131, 2132, 2133, 2134, 2135, 2136
 2137, 2138, 2139, 2140, 2141, 2142, 2143, 2144, 2145, 2174, 2175, 2176, 2177, 2178, 2179, 2180
 2181, 2182, 2183, 2184, 2185, 2186, 2187, 2188
*Elset, elset=x-symm, instance=Part-1-1
  6665,  6673,  6681,  6689,  6697,  6705,  6713,  6721,  6722,  6723,  6724,  6725,  6726,  6727,  6728,  6729
  7622,  7637,  7652,  7667,  7682,  7697,  7712,  7727,  7742,  7757,  7772,  7787,  7802,  7817,  7832,  7847
  7862,  7877,  7892,  7907,  7922,  7937,  7952,  7967,  7982,  7997,  8012,  8027,  8042,  8057,  8072,  8087
  8102,  8117,  8132,  8147,  8162,  8177,  8192,  8207,  8222,  8237,  8676,  8684,  8692,  8700,  8708,  8716
  8724,  8732,  8733,  8734,  8735,  8736,  8737,  8738,  8739,  8740,  8965,  8973,  8981,  8989,  8997,  9005
  9013,  9021,  9022,  9023,  9024,  9025,  9026,  9027,  9028,  9029,  9254,  9262,  9270,  9278,  9286,  9294
  9302,  9310,  9311,  9312,  9313,  9314,  9315,  9316,  9317,  9318,  9543,  9551,  9559,  9567,  9575,  9583
  9591,  9599,  9600,  9601,  9602,  9603,  9604,  9605,  9606,  9607,  9832,  9840,  9848,  9856,  9864,  9872
  9880,  9888,  9889,  9890,  9891,  9892,  9893,  9894,  9895,  9896, 10121, 10129, 10137, 10145, 10153, 10161
 10169, 10177, 10178, 10179, 10180, 10181, 10182, 10183, 10184, 10185
*Nset, nset=y-symm, instance=Part-1-1
    3,    4,    5,    6,    9,   10,   13,   14,   17,   18,   21,   22,   27,   28,   45,   48
   49,   70,   72,   74,   76,   78,   80,  146,  147,  148,  149,  150,  151,  152,  153,  154
  155,  156,  157,  158,  159,  160,  161,  162,  163,  164,  165,  166,  167,  168,  169,  170
  171,  172,  173,  174,  175,  176,  177,  178,  179,  180,  181,  182,  183,  184,  185,  186
  187,  188,  189,  190,  191,  192,  193,  194,  195,  196,  211,  212,  213,  214,  215,  216
  217,  218,  219,  220,  221,  222,  223,  224,  225,  226,  227,  228,  229,  230,  231,  232
  233,  234,  235,  236,  237,  238,  239,  240,  241,  242,  243,  244,  245,  246,  247,  248
  249,  250,  251,  252,  253,  254,  255,  256,  257,  258,  259,  260,  261,  341,  342,  343
  344,  345,  346,  347,  348,  349,  350,  351,  352,  353,  354,  355,  356,  357,  358,  359
  360,  361,  362,  363,  364,  365,  366,  367,  368,  369,  370,  371,  372,  373,  374,  375
  376,  377,  378,  379,  380,  381,  382,  383,  384,  385,  386,  387,  388,  389,  390,  391
  471,  472,  473,  474,  475,  476,  477,  478,  479,  480,  481,  482,  483,  484,  485,  486
  487,  488,  489,  490,  491,  492,  493,  494,  495,  496,  497,  498,  499,  500,  501,  502
  503,  504,  505,  506,  507,  508,  509,  510,  511,  512,  513,  514,  515,  516,  517,  518
  519,  520,  521,  601,  602,  603,  604,  605,  606,  607,  608,  609,  610,  611,  612,  613
  614,  615,  616,  617,  618,  619,  620,  621,  622,  623,  624,  625,  626,  627,  628,  629
  630,  631,  632,  633,  634,  635,  636,  637,  638,  639,  640,  641,  642,  643,  644,  645
  646,  647,  648,  649,  650,  651,  731,  732,  733,  734,  735,  736,  737,  738,  739,  740
  741,  742,  743,  744,  745,  746,  747,  748,  749,  750,  751,  752,  753,  754,  755,  756
  757,  758,  759,  760,  761,  762,  763,  764,  765,  766,  767,  768,  769,  770,  771,  772
** ... 11 like lines cut
*Elset, elset=y-symm, instance=Part-1-1
   729,   730,   731,   732,   733,   734,   735,   736,   737,   738,   739,   740,   741,   742,   743,   744
   745,   746,   747,   748,   749,   750,   751,   752,   753,   754,   755,   756,   757,   758,   759,   760
   761,   762,   763,   764,   765,   766,   767,   768,   769,   770,   771,   772,   773,   774,   775,   776
   777,   778,   779,   780,  1509,  1510,  1511,  1512,  1513,  1514,  1515,  1516,  1517,  1518,  1519,  1520
  1521,  1522,  1523,  1524,  1525,  1526,  1527,  1528,  1529,  1530,  1531,  1532,  1533,  1534,  1535,  1536
  1537,  1538,  1539,  1540,  1541,  1542,  1543,  1544,  1545,  1546,  1547,  1548,  1549,  1550,  1551,  1552
  1553,  1554,  1555,  1556,  1557,  1558,  1559,  1560,  2289,  2290,  2291,  2292,  2293,  2294,  2295,  2296
  2297,  2298,  2299,  2300,  2301,  2302,  2303,  2304,  2305,  2306,  2307,  2308,  2309,  2310,  2311,  2312
  2313,  2314,  2315,  2316,  2317,  2318,  2319,  2320,  2321,  2322,  2323,  2324,  2325,  2326,  2327,  2328
  2329,  2330,  2331,  2332,  2333,  2334,  2335,  2336,  2337,  2338,  2339,  2340,  3069,  3070,  3071,  3072
  3073,  3074,  3075,  3076,  3077,  3078,  3079,  3080,  3081,  3082,  3083,  3084,  3085,  3086,  3087,  3088
  3089,  3090,  3091,  3092,  3093,  3094,  3095,  3096,  3097,  3098,  3099,  3100,  3101,  3102,  3103,  3104
  3105,  3106,  3107,  3108,  3109,  3110,  3111,  3112,  3113,  3114,  3115,  3116,  3117,  3118,  3119,  3120
  3849,  3850,  3851,  3852,  3853,  3854,  3855,  3856,  3857,  3858,  3859,  3860,  3861,  3862,  3863,  3864
  3865,  3866,  3867,  3868,  3869,  3870,  3871,  3872,  3873,  3874,  3875,  3876,  3877,  3878,  3879,  3880
  3881,  3882,  3883,  3884,  3885,  3886,  3887,  3888,  3889,  3890,  3891,  3892,  3893,  3894,  3895,  3896
  3897,  3898,  3899,  3900,  4629,  4630,  4631,  4632,  4633,  4634,  4635,  4636,  4637,  4638,  4639,  4640
  4641,  4642,  4643,  4644,  4645,  4646,  4647,  4648,  4649,  4650,  4651,  4652,  4653,  4654,  4655,  4656
  4657,  4658,  4659,  4660,  4661,  4662,  4663,  4664,  4665,  4666,  4667,  4668,  4669,  4670,  4671,  4672
  4673,  4674,  4675,  4676,  4677,  4678,  4679,  4680,  6553,  6554,  6555,  6556,  6557,  6558,  6559,  6792
** ... 7 like lines cut
*Nset, nset=z-symm, instance=Part-1-1
    25,    26,    27,    28,    41,    42,    64,    65,    79,    80,   861,   862,   863,   864,   865,   866
   867,   868,   869,   870,   871,   872,   873,   874,   875,   876,   877,   878,   879,   880,   881,   882
   883,   884,   885,   886,   887,   888,   889,   890,   891,   892,   893,   894,   895,   896,   897,   898
   899,   900,   901,   902,   903,   904,   905,   906,   907,   908,   909,   910,   911,   912,   913,   914
   915,   916,   917,   918,   919,   920,   921,   922,   923,   924,   925,   926,   927,   928,   929,   930
   931,   932,   933,   934,   935,   936,   937,   938,   939,   940,   941,   942,   943,   944,   945,   946
   947,   948,   949,   950,   951,   952,   953,   954,   955,   956,   957,   958,   959,   960,   961,   962
   963,   964,   965,   966,   967,   968,   969,   970,   971,   972,   973,   974,   975,   976,   977,   978
   979,   980,   981,   982,   983,   984,   985,   986,   987,   988,   989,   990,  1357,  1358,  1359,  1360
  1361,  1362,  1363,  1364,  1365,  1366,  1367,  1368,  1369,  1370,  1371,  1372,  1373,  1374,  1375,  1376
  1377,  1378,  1379,  1380,  1381,  1382,  1383,  1384,  1385,  1386,  1387,  1388,  1389,  1390,  1391,  1392
  1393,  1394,  1395,  1396,  1397,  1398,  1399,  1400,  1401,  1402,  1403,  1404,  1405,  1406,  1407,  1408
  1409,  1410,  1411,  1412,  1413,  1414,  1415,  1416,  1417,  1846,  1847,  1848,  1849,  1850,  1851,  1852
  1853,  1854,  1855,  1856,  1857,  1858,  1859,  1860,  1861,  1862,  1863,  1864,  1865,  1866,  1867,  1868
  1869,  1870,  1871,  1872,  1873,  1874,  1875,  1876,  1877,  1878,  2174,  2175,  2176,  2177,  2178,  2179
  2180,  2181,  2182,  2183,  2184,  2185,  2186,  2187,  2188,  2189,  2190,  2191,  2192,  2193,  2194,  2195
  2196,  2197,  2198,  2199,  2200,  2201,  2202,  2203,  2204,  2205,  2206,  2207,  2208,  2209,  2210,  2211
  2212,  2213,  2214,  2215,  2216,  6501,  6502,  6503,  6504,  6505,  6506,  6507,  6508,  6509,  6510,  6511
  6512,  6513,  6514,  6515,  6516,  6517,  6518,  6519,  6520,  6521,  6522,  6523,  6524,  6525,  6526,  6527
  6528,  6529,  6530,  6531,  6532,  6533,  6534,  6535,  6536,  6537,  6538,  6539,  6540,  6541,  6542,  6543
** ... 78 like lines cut
*Elset, elset=z-symm, instance=Part-1-1
  3901,  3902,  3903,  3904,  3905,  3906,  3907,  3908,  3909,  3910,  3911,  3912,  3913,  3914,  3915,  3916
  3917,  3918,  3919,  3920,  3921,  3922,  3923,  3924,  3925,  3926,  3927,  3928,  3929,  3930,  3931,  3932
  3933,  3934,  3935,  3936,  3937,  3938,  3939,  3940,  3941,  3942,  3943,  3944,  3945,  3946,  3947,  3948
  3949,  3950,  3951,  3952,  3953,  3954,  3955,  3956,  3957,  3958,  3959,  3960,  3961,  3962,  3963,  3964
  3965,  3966,  3967,  3968,  3969,  3970,  3971,  3972,  3973,  3974,  3975,  3976,  3977,  3978,  3979,  3980
  3981,  3982,  3983,  3984,  3985,  3986,  3987,  3988,  3989,  3990,  3991,  3992,  3993,  3994,  3995,  3996
  3997,  3998,  3999,  4000,  4001,  4002,  4003,  4004,  4005,  4006,  4007,  4008,  4009,  4010,  4011,  4012
  4013,  4014,  4015,  4016,  4017,  4018,  4019,  4020,  4021,  4022,  4023,  4024,  4025,  4026,  4027,  4028
  4029,  4030,  4031,  4032,  4033,  4034,  4035,  4036,  4037,  4038,  4039,  4040,  4041,  4042,  4043,  4044
  4045,  4046,  4047,  4048,  4049,  4050,  4051,  4052,  4053,  4054,  4055,  4056,  4057,  4058,  4059,  4060
  4061,  4062,  4063,  4064,  4065,  4066,  4067,  4068,  4069,  4070,  4071,  4072,  4073,  4074,  4075,  4076
  4077,  4078,  4079,  4080,  4081,  4082,  4083,  4084,  4085,  4086,  4087,  4088,  4089,  4090,  4091,  4092
  4093,  4094,  4095,  4096,  4097,  4098,  4099,  4100,  4101,  4102,  4103,  4104,  4105,  4106,  4107,  4108
  4109,  4110,  4111,  4112,  4113,  4114,  4115,  4116,  4117,  4118,  4119,  4120,  4121,  4122,  4123,  4124
  4125,  4126,  4127,  4128,  4129,  4130,  4131,  4132,  4133,  4134,  4135,  4136,  4137,  4138,  4139,  4140
  4141,  4142,  4143,  4144,  4145,  4146,  4147,  4148,  4149,  4150,  4151,  4152,  4153,  4154,  4155,  4156
  4157,  4158,  4159,  4160,  4161,  4162,  4163,  4164,  4165,  4166,  4167,  4168,  4169,  4170,  4171,  4172
  4173,  4174,  4175,  4176,  4177,  4178,  4179,  4180,  4181,  4182,  4183,  4184,  4185,  4186,  4187,  4188
  4189,  4190,  4191,  4192,  4193,  4194,  4195,  4196,  4197,  4198,  4199,  4200,  4201,  4202,  4203,  4204
  4205,  4206,  4207,  4208,  4209,  4210,  4211,  4212,  4213,  4214,  4215,  4216,  4217,  4218,  4219,  4220
** ... 72 like lines cut
*Nset, nset=x-load, instance=Part-1-1
    1,    4,    6,    7,   10,   11,   14,   15,   18,   19,   22,   23,   25,   28,   29,   32
   34,   36,   38,   40,   41,   51,   52,   68,  197,  198,  199,  200,  201,  202,  203,  204
  205,  206,  207,  208,  209,  210,  262,  263,  264,  265,  266,  267,  268,  269,  270,  271
  272,  273,  274,  275,  392,  393,  394,  395,  396,  397,  398,  399,  400,  401,  402,  403
  404,  405,  522,  523,  524,  525,  526,  527,  528,  529,  530,  531,  532,  533,  534,  535
  652,  653,  654,  655,  656,  657,  658,  659,  660,  661,  662,  663,  664,  665,  782,  783
  784,  785,  786,  787,  788,  789,  790,  791,  792,  793,  794,  795,  977,  978,  979,  980
  981,  982,  983,  984,  985,  986,  987,  988,  989,  990,  991,  992,  993,  994,  995, 1057
 1058, 1059, 1060, 1061, 1118, 1119, 1120, 1121, 1122, 1179, 1180, 1181, 1182, 1183, 1240, 1241
 1242, 1243, 1244, 1301, 1302, 1303, 1304, 1305, 1357, 1358, 1359, 1360, 1361, 1597, 1598, 1599
 1600, 1601, 1602, 1603, 1604, 1605, 1606, 1607, 1608, 1609, 1610, 1954, 1955, 1956, 1957, 1958
*Elset, elset=x-load, instance=Part-1-1
    1,   53,  105,  157,  209,  261,  313,  365,  417,  469,  521,  573,  625,  677,  729,  781
  833,  885,  937,  989, 1041, 1093, 1145, 1197, 1249, 1301, 1353, 1405, 1457, 1509, 1561, 1613
 1665, 1717, 1769, 1821, 1873, 1925, 1977, 2029, 2081, 2133, 2185, 2237, 2289, 2341, 2393, 2445
 2497, 2549, 2601, 2653, 2705, 2757, 2809, 2861, 2913, 2965, 3017, 3069, 3121, 3173, 3225, 3277
 3329, 3381, 3433, 3485, 3537, 3589, 3641, 3693, 3745, 3797, 3849, 3901, 3953, 4005, 4057, 4109
 4161, 4213, 4265, 4317, 4369, 4421, 4473, 4525, 4577, 4629, 4681, 4682, 4683, 4684, 4685, 4686
 4993, 4994, 4995, 4996, 4997, 4998, 5305, 5306, 5307, 5308, 5309, 5310, 5617, 5618, 5619, 5620
 5621, 5622, 5929, 5930, 5931, 5932, 5933, 5934, 6241, 6242, 6243, 6244, 6245, 6246, 6842, 6894
 6946, 6998, 7050, 7102, 7154, 7206, 7258, 7310, 7362, 7414, 7466, 7518, 7570, 8252, 8253, 8254
 8255, 8256, 8257
*Nset, nset=x-ref, instance=Part-2-1
 1,
*Nset, nset=QA_TEST_RF, instance=Part-2-1
 1,
*Nset, nset=aluminum_ext, instance=Part-1-1
     1,     2,     3,     4,    29,    30,    43,    44,    45,    46,    47,    48,    49,    50,    51,    52
    53,    66,    67,    68,    81,    82,    83,    84,    85,    86,    87,    88,    89,    90,    91,    92
    93,    94,    95,    96,    97,    98,    99,   100,   101,   102,   103,   104,   105,   106,   107,   108
   109,   110,   111,   112,   113,   114,   115,   116,   117,   118,   119,   120,   121,   122,   123,   124
   125,   126,   127,   128,   129,   130,   131,   132,   133,   134,   135,   136,   137,   138,   139,   140
   141,   142,   143,   144,   145,   146,   147,   148,   149,   150,   151,   152,   153,   154,   155,   156
   157,   158,   159,   160,   161,   162,   163,   164,   165,   166,   167,   168,   169,   170,   171,   172
   173,   174,   175,   176,   177,   178,   179,   180,   181,   182,   183,   184,   185,   186,   187,   188
   189,   190,   191,   192,   193,   194,   195,   196,   197,   198,   199,   200,   201,   202,   203,   204
   205,   206,   207,   208,   209,   210,   991,   992,   993,   994,   995,   996,   997,   998,   999,  1000
  1001,  1002,  1003,  1004,  1005,  1006,  1007,  1008,  1009,  1010,  1011,  1012,  1013,  1014,  1015,  1016
  1017,  1018,  1019,  1020,  1021,  1022,  1023,  1024,  1025,  1026,  1027,  1028,  1029,  1030,  1031,  1032
  1033,  1034,  1035,  1036,  1037,  1038,  1039,  1040,  1041,  1042,  1043,  1044,  1045,  1046,  1047,  1048
  1049,  1050,  1051,  1418,  1419,  1420,  1421,  1422,  1423,  1424,  1425,  1426,  1427,  1428,  1429,  1430
  1431,  1432,  1433,  1434,  1435,  1436,  1437,  1438,  1439,  1440,  1441,  1442,  1443,  1444,  1445,  1446
  1447,  1448,  1449,  1450,  1451,  1452,  1453,  1454,  1455,  1456,  1457,  1458,  1459,  1460,  1461,  1462
  1463,  1464,  1465,  1466,  1467,  1468,  1469,  1470,  1471,  1472,  1473,  1474,  1475,  1476,  1477,  1478
  1479,  1480,  1481,  1482,  1483,  1484,  1485,  1486,  1487,  1488,  1489,  1490,  1491,  1492,  1493,  1494
  1495,  1496,  1497,  1498,  1499,  1500,  1501,  1502,  1503,  1504,  1505,  1506,  1507,  1508,  1509,  1510
  1511,  1512,  1513,  1514,  1515,  1516,  1517,  1518,  1519,  1520,  1521,  1522,  1523,  1524,  1525,  1526
** ... 176 like lines cut
*Elset, elset=aluminum_ext, instance=Part-1-1
 6553, 6554, 6555, 6556, 6557, 6558, 6559, 6560, 6561, 6562, 6563, 6564, 6565, 6566, 6567, 6568
 6569, 6570, 6571, 6572, 6573, 6574, 6575, 6576, 6577, 6578, 6579, 6580, 6581, 6582, 6583, 6584
 6585, 6586, 6587, 6588, 6589, 6590, 6591, 6592, 6593, 6594, 6595, 6596, 6597, 6598, 6599, 6600
 6601, 6602, 6603, 6604, 6605, 6606, 6607, 6608, 6609, 6610, 6611, 6612, 6613, 6614, 6615, 6616
 6617, 6618, 6619, 6620, 6621, 6622, 6623, 6624, 6625, 6626, 6627, 6628, 6629, 6630, 6631, 6632
 6633, 6634, 6635, 6636, 6637, 6638, 6639, 6640, 6641, 6642, 6643, 6644, 6645, 6646, 6647, 6648
 6649, 6650, 6651, 6652, 6653, 6654, 6655, 6656, 6657, 6658, 6659, 6660, 6661, 6662, 6663, 6664
 6665, 6666, 6667, 6668, 6669, 6670, 6671, 6672, 6673, 6674, 6675, 6676, 6677, 6678, 6679, 6680
 6681, 6682, 6683, 6684, 6685, 6686, 6687, 6688, 6689, 6690, 6691, 6692, 6693, 6694, 6695, 6696
 6697, 6698, 6699, 6700, 6701, 6702, 6703, 6704, 6705, 6706, 6707, 6708, 6709, 6710, 6711, 6712
 6713, 6714, 6715, 6716, 6717, 6718, 6719, 6720, 6721, 6722, 6723, 6724, 6725, 6726, 6727, 6728
 6729, 6730, 6731, 6732, 6733, 6734, 6735, 6736, 6737, 6738, 6739, 6740, 6741, 6742, 6743, 6744
 6745, 6746, 6747, 6748, 6749, 6750, 6751, 6752, 6753, 6754, 6755, 6756, 6757, 6758, 6759, 6760
 6761, 6762, 6763, 6764, 6765, 6766, 6767, 6768, 6769, 6770, 6771, 6772, 6773, 6774, 6775, 6776
 6777, 6778, 6779, 6780, 6781, 6782, 6783, 6784, 6785, 6786, 6787, 6788, 6789, 6790, 6791, 6792
 6793, 6794, 6795, 6796, 6797, 6798, 6799, 6800, 6801, 6802, 6803, 6804, 6805, 6806, 6807, 6808
 6809, 6810, 6811, 6812, 6813, 6814, 6815, 6816, 6817, 6818, 6819, 6820, 6821, 6822, 6823, 6824
 6825, 6826, 6827, 6828, 6829, 6830, 6831, 6832, 6833, 6834, 6835, 6836, 6837, 6838, 6839, 6840
 6841, 6842, 6843, 6844, 6845, 6846, 6847, 6848, 6849, 6850, 6851, 6852, 6853, 6854, 6855, 6856
 6857, 6858, 6859, 6860, 6861, 6862, 6863, 6864, 6865, 6866, 6867, 6868, 6869, 6870, 6871, 6872
** ... 72 like lines cut
*Nset, nset=cohesive_ext, instance=Part-1-1
     1,     2,     3,     4,     5,     6,     7,     8,    29,    30,    31,    32,    43,    44,    45,    53
    54,    55,    69,    70,    81,    82,    83,    84,    85,    86,    87,    88,    89,    90,    91,    92
    93,    94,    95,    96,    97,    98,    99,   100,   101,   102,   103,   104,   105,   106,   107,   108
   109,   110,   111,   112,   113,   114,   115,   116,   117,   118,   119,   120,   121,   122,   123,   124
   125,   126,   127,   128,   129,   130,   131,   132,   133,   134,   135,   136,   137,   138,   139,   140
   141,   142,   143,   144,   145,   146,   147,   148,   149,   150,   151,   152,   153,   154,   155,   156
   157,   158,   159,   160,   161,   162,   163,   164,   165,   166,   167,   168,   169,   170,   171,   172
   173,   174,   175,   176,   177,   178,   179,   180,   181,   182,   183,   184,   185,   186,   187,   188
   189,   190,   191,   192,   193,   194,   195,   196,   197,   198,   199,   200,   201,   202,   203,   204
   205,   206,   207,   208,   209,   210,   211,   212,   213,   214,   215,   216,   217,   218,   219,   220
   221,   222,   223,   224,   225,   226,   227,   228,   229,   230,   231,   232,   233,   234,   235,   236
   237,   238,   239,   240,   241,   242,   243,   244,   245,   246,   247,   248,   249,   250,   251,   252
   253,   254,   255,   256,   257,   258,   259,   260,   261,   262,   263,   264,   265,   266,   267,   268
   269,   270,   271,   272,   273,   274,   275,   276,   277,   278,   279,   280,   281,   282,   283,   284
   285,   286,   287,   288,   289,   290,   291,   292,   293,   294,   295,   296,   297,   298,   299,   300
   301,   302,   303,   304,   305,   306,   307,   308,   309,   310,   311,   312,   313,   314,   315,   316
   317,   318,   319,   320,   321,   322,   323,   324,   325,   326,   327,   328,   329,   330,   331,   332
   333,   334,   335,   336,   337,   338,   339,   340,   991,   992,   993,   994,   995,   996,   997,   998
   999,  1000,  1001,  1002,  1003,  1004,  1005,  1006,  1007,  1008,  1009,  1010,  1011,  1012,  1013,  1014
  1015,  1016,  1017,  1018,  1019,  1020,  1021,  1022,  1023,  1024,  1025,  1026,  1027,  1028,  1029,  1030
** ... 176 like lines cut
*Elset, elset=cohesive_ext, instance=Part-1-1
    1,    2,    3,    4,    5,    6,    7,    8,    9,   10,   11,   12,   13,   14,   15,   16
   17,   18,   19,   20,   21,   22,   23,   24,   25,   26,   27,   28,   29,   30,   31,   32
   33,   34,   35,   36,   37,   38,   39,   40,   41,   42,   43,   44,   45,   46,   47,   48
   49,   50,   51,   52,   53,   54,   55,   56,   57,   58,   59,   60,   61,   62,   63,   64
   65,   66,   67,   68,   69,   70,   71,   72,   73,   74,   75,   76,   77,   78,   79,   80
   81,   82,   83,   84,   85,   86,   87,   88,   89,   90,   91,   92,   93,   94,   95,   96
   97,   98,   99,  100,  101,  102,  103,  104,  105,  106,  107,  108,  109,  110,  111,  112
  113,  114,  115,  116,  117,  118,  119,  120,  121,  122,  123,  124,  125,  126,  127,  128
  129,  130,  131,  132,  133,  134,  135,  136,  137,  138,  139,  140,  141,  142,  143,  144
  145,  146,  147,  148,  149,  150,  151,  152,  153,  154,  155,  156,  157,  158,  159,  160
  161,  162,  163,  164,  165,  166,  167,  168,  169,  170,  171,  172,  173,  174,  175,  176
  177,  178,  179,  180,  181,  182,  183,  184,  185,  186,  187,  188,  189,  190,  191,  192
  193,  194,  195,  196,  197,  198,  199,  200,  201,  202,  203,  204,  205,  206,  207,  208
  209,  210,  211,  212,  213,  214,  215,  216,  217,  218,  219,  220,  221,  222,  223,  224
  225,  226,  227,  228,  229,  230,  231,  232,  233,  234,  235,  236,  237,  238,  239,  240
  241,  242,  243,  244,  245,  246,  247,  248,  249,  250,  251,  252,  253,  254,  255,  256
  257,  258,  259,  260,  261,  262,  263,  264,  265,  266,  267,  268,  269,  270,  271,  272
  273,  274,  275,  276,  277,  278,  279,  280,  281,  282,  283,  284,  285,  286,  287,  288
  289,  290,  291,  292,  293,  294,  295,  296,  297,  298,  299,  300,  301,  302,  303,  304
  305,  306,  307,  308,  309,  310,  311,  312,  313,  314,  315,  316,  317,  318,  319,  320
** ... 72 like lines cut
*Nset, nset=composite_ext, instance=Part-1-1
     5,     6,     7,     8,     9,    10,    11,    12,    31,    32,    33,    34,    54,    55,    56,    57
    69,    70,    71,    72,   211,   212,   213,   214,   215,   216,   217,   218,   219,   220,   221,   222
   223,   224,   225,   226,   227,   228,   229,   230,   231,   232,   233,   234,   235,   236,   237,   238
   239,   240,   241,   242,   243,   244,   245,   246,   247,   248,   249,   250,   251,   252,   253,   254
   255,   256,   257,   258,   259,   260,   261,   262,   263,   264,   265,   266,   267,   268,   269,   270
   271,   272,   273,   274,   275,   276,   277,   278,   279,   280,   281,   282,   283,   284,   285,   286
   287,   288,   289,   290,   291,   292,   293,   294,   295,   296,   297,   298,   299,   300,   301,   302
   303,   304,   305,   306,   307,   308,   309,   310,   311,   312,   313,   314,   315,   316,   317,   318
   319,   320,   321,   322,   323,   324,   325,   326,   327,   328,   329,   330,   331,   332,   333,   334
   335,   336,   337,   338,   339,   340,   341,   342,   343,   344,   345,   346,   347,   348,   349,   350
   351,   352,   353,   354,   355,   356,   357,   358,   359,   360,   361,   362,   363,   364,   365,   366
   367,   368,   369,   370,   371,   372,   373,   374,   375,   376,   377,   378,   379,   380,   381,   382
   383,   384,   385,   386,   387,   388,   389,   390,   391,   392,   393,   394,   395,   396,   397,   398
   399,   400,   401,   402,   403,   404,   405,   406,   407,   408,   409,   410,   411,   412,   413,   414
   415,   416,   417,   418,   419,   420,   421,   422,   423,   424,   425,   426,   427,   428,   429,   430
   431,   432,   433,   434,   435,   436,   437,   438,   439,   440,   441,   442,   443,   444,   445,   446
   447,   448,   449,   450,   451,   452,   453,   454,   455,   456,   457,   458,   459,   460,   461,   462
   463,   464,   465,   466,   467,   468,   469,   470,  1052,  1053,  1054,  1055,  1056,  1057,  1058,  1059
  1060,  1061,  1062,  1063,  1064,  1065,  1066,  1067,  1068,  1069,  1070,  1071,  1072,  1073,  1074,  1075
  1076,  1077,  1078,  1079,  1080,  1081,  1082,  1083,  1084,  1085,  1086,  1087,  1088,  1089,  1090,  1091
** ... 176 like lines cut
*Elset, elset=composite_ext, instance=Part-1-1
  781,  782,  783,  784,  785,  786,  787,  788,  789,  790,  791,  792,  793,  794,  795,  796
  797,  798,  799,  800,  801,  802,  803,  804,  805,  806,  807,  808,  809,  810,  811,  812
  813,  814,  815,  816,  817,  818,  819,  820,  821,  822,  823,  824,  825,  826,  827,  828
  829,  830,  831,  832,  833,  834,  835,  836,  837,  838,  839,  840,  841,  842,  843,  844
  845,  846,  847,  848,  849,  850,  851,  852,  853,  854,  855,  856,  857,  858,  859,  860
  861,  862,  863,  864,  865,  866,  867,  868,  869,  870,  871,  872,  873,  874,  875,  876
  877,  878,  879,  880,  881,  882,  883,  884,  885,  886,  887,  888,  889,  890,  891,  892
  893,  894,  895,  896,  897,  898,  899,  900,  901,  902,  903,  904,  905,  906,  907,  908
  909,  910,  911,  912,  913,  914,  915,  916,  917,  918,  919,  920,  921,  922,  923,  924
  925,  926,  927,  928,  929,  930,  931,  932,  933,  934,  935,  936,  937,  938,  939,  940
  941,  942,  943,  944,  945,  946,  947,  948,  949,  950,  951,  952,  953,  954,  955,  956
  957,  958,  959,  960,  961,  962,  963,  964,  965,  966,  967,  968,  969,  970,  971,  972
  973,  974,  975,  976,  977,  978,  979,  980,  981,  982,  983,  984,  985,  986,  987,  988
  989,  990,  991,  992,  993,  994,  995,  996,  997,  998,  999, 1000, 1001, 1002, 1003, 1004
 1005, 1006, 1007, 1008, 1009, 1010, 1011, 1012, 1013, 1014, 1015, 1016, 1017, 1018, 1019, 1020
 1021, 1022, 1023, 1024, 1025, 1026, 1027, 1028, 1029, 1030, 1031, 1032, 1033, 1034, 1035, 1036
 1037, 1038, 1039, 1040, 1041, 1042, 1043, 1044, 1045, 1046, 1047, 1048, 1049, 1050, 1051, 1052
 1053, 1054, 1055, 1056, 1057, 1058, 1059, 1060, 1061, 1062, 1063, 1064, 1065, 1066, 1067, 1068
 1069, 1070, 1071, 1072, 1073, 1074, 1075, 1076, 1077, 1078, 1079, 1080, 1081, 1082, 1083, 1084
 1085, 1086, 1087, 1088, 1089, 1090, 1091, 1092, 1093, 1094, 1095, 1096, 1097, 1098, 1099, 1100
** ... 72 like lines cut
*Nset, nset=cohesive_middle, instance=Part-1-1
     9,    10,    11,    12,    13,    14,    15,    16,    33,    34,    35,    36,    56,    57,    58,    59
    71,    72,    73,    74,   341,   342,   343,   344,   345,   346,   347,   348,   349,   350,   351,   352
   353,   354,   355,   356,   357,   358,   359,   360,   361,   362,   363,   364,   365,   366,   367,   368
   369,   370,   371,   372,   373,   374,   375,   376,   377,   378,   379,   380,   381,   382,   383,   384
   385,   386,   387,   388,   389,   390,   391,   392,   393,   394,   395,   396,   397,   398,   399,   400
   401,   402,   403,   404,   405,   406,   407,   408,   409,   410,   411,   412,   413,   414,   415,   416
   417,   418,   419,   420,   421,   422,   423,   424,   425,   426,   427,   428,   429,   430,   431,   432
   433,   434,   435,   436,   437,   438,   439,   440,   441,   442,   443,   444,   445,   446,   447,   448
   449,   450,   451,   452,   453,   454,   455,   456,   457,   458,   459,   460,   461,   462,   463,   464
   465,   466,   467,   468,   469,   470,   471,   472,   473,   474,   475,   476,   477,   478,   479,   480
   481,   482,   483,   484,   485,   486,   487,   488,   489,   490,   491,   492,   493,   494,   495,   496
   497,   498,   499,   500,   501,   502,   503,   504,   505,   506,   507,   508,   509,   510,   511,   512
   513,   514,   515,   516,   517,   518,   519,   520,   521,   522,   523,   524,   525,   526,   527,   528
   529,   530,   531,   532,   533,   534,   535,   536,   537,   538,   539,   540,   541,   542,   543,   544
   545,   546,   547,   548,   549,   550,   551,   552,   553,   554,   555,   556,   557,   558,   559,   560
   561,   562,   563,   564,   565,   566,   567,   568,   569,   570,   571,   572,   573,   574,   575,   576
   577,   578,   579,   580,   581,   582,   583,   584,   585,   586,   587,   588,   589,   590,   591,   592
   593,   594,   595,   596,   597,   598,   599,   600,  1113,  1114,  1115,  1116,  1117,  1118,  1119,  1120
  1121,  1122,  1123,  1124,  1125,  1126,  1127,  1128,  1129,  1130,  1131,  1132,  1133,  1134,  1135,  1136
  1137,  1138,  1139,  1140,  1141,  1142,  1143,  1144,  1145,  1146,  1147,  1148,  1149,  1150,  1151,  1152
** ... 176 like lines cut
*Elset, elset=cohesive_middle, instance=Part-1-1
 1561, 1562, 1563, 1564, 1565, 1566, 1567, 1568, 1569, 1570, 1571, 1572, 1573, 1574, 1575, 1576
 1577, 1578, 1579, 1580, 1581, 1582, 1583, 1584, 1585, 1586, 1587, 1588, 1589, 1590, 1591, 1592
 1593, 1594, 1595, 1596, 1597, 1598, 1599, 1600, 1601, 1602, 1603, 1604, 1605, 1606, 1607, 1608
 1609, 1610, 1611, 1612, 1613, 1614, 1615, 1616, 1617, 1618, 1619, 1620, 1621, 1622, 1623, 1624
 1625, 1626, 1627, 1628, 1629, 1630, 1631, 1632, 1633, 1634, 1635, 1636, 1637, 1638, 1639, 1640
 1641, 1642, 1643, 1644, 1645, 1646, 1647, 1648, 1649, 1650, 1651, 1652, 1653, 1654, 1655, 1656
 1657, 1658, 1659, 1660, 1661, 1662, 1663, 1664, 1665, 1666, 1667, 1668, 1669, 1670, 1671, 1672
 1673, 1674, 1675, 1676, 1677, 1678, 1679, 1680, 1681, 1682, 1683, 1684, 1685, 1686, 1687, 1688
 1689, 1690, 1691, 1692, 1693, 1694, 1695, 1696, 1697, 1698, 1699, 1700, 1701, 1702, 1703, 1704
 1705, 1706, 1707, 1708, 1709, 1710, 1711, 1712, 1713, 1714, 1715, 1716, 1717, 1718, 1719, 1720
 1721, 1722, 1723, 1724, 1725, 1726, 1727, 1728, 1729, 1730, 1731, 1732, 1733, 1734, 1735, 1736
 1737, 1738, 1739, 1740, 1741, 1742, 1743, 1744, 1745, 1746, 1747, 1748, 1749, 1750, 1751, 1752
 1753, 1754, 1755, 1756, 1757, 1758, 1759, 1760, 1761, 1762, 1763, 1764, 1765, 1766, 1767, 1768
 1769, 1770, 1771, 1772, 1773, 1774, 1775, 1776, 1777, 1778, 1779, 1780, 1781, 1782, 1783, 1784
 1785, 1786, 1787, 1788, 1789, 1790, 1791, 1792, 1793, 1794, 1795, 1796, 1797, 1798, 1799, 1800
 1801, 1802, 1803, 1804, 1805, 1806, 1807, 1808, 1809, 1810, 1811, 1812, 1813, 1814, 1815, 1816
 1817, 1818, 1819, 1820, 1821, 1822, 1823, 1824, 1825, 1826, 1827, 1828, 1829, 1830, 1831, 1832
 1833, 1834, 1835, 1836, 1837, 1838, 1839, 1840, 1841, 1842, 1843, 1844, 1845, 1846, 1847, 1848
 1849, 1850, 1851, 1852, 1853, 1854, 1855, 1856, 1857, 1858, 1859, 1860, 1861, 1862, 1863, 1864
 1865, 1866, 1867, 1868, 1869, 1870, 1871, 1872, 1873, 1874, 1875, 1876, 1877, 1878, 1879, 1880
** ... 72 like lines cut
*Nset, nset=composite_int, instance=Part-1-1
    13,    14,    15,    16,    17,    18,    19,    20,    35,    36,    37,    38,    58,    59,    60,    61
    73,    74,    75,    76,   471,   472,   473,   474,   475,   476,   477,   478,   479,   480,   481,   482
   483,   484,   485,   486,   487,   488,   489,   490,   491,   492,   493,   494,   495,   496,   497,   498
   499,   500,   501,   502,   503,   504,   505,   506,   507,   508,   509,   510,   511,   512,   513,   514
   515,   516,   517,   518,   519,   520,   521,   522,   523,   524,   525,   526,   527,   528,   529,   530
   531,   532,   533,   534,   535,   536,   537,   538,   539,   540,   541,   542,   543,   544,   545,   546
   547,   548,   549,   550,   551,   552,   553,   554,   555,   556,   557,   558,   559,   560,   561,   562
   563,   564,   565,   566,   567,   568,   569,   570,   571,   572,   573,   574,   575,   576,   577,   578
   579,   580,   581,   582,   583,   584,   585,   586,   587,   588,   589,   590,   591,   592,   593,   594
   595,   596,   597,   598,   599,   600,   601,   602,   603,   604,   605,   606,   607,   608,   609,   610
   611,   612,   613,   614,   615,   616,   617,   618,   619,   620,   621,   622,   623,   624,   625,   626
   627,   628,   629,   630,   631,   632,   633,   634,   635,   636,   637,   638,   639,   640,   641,   642
   643,   644,   645,   646,   647,   648,   649,   650,   651,   652,   653,   654,   655,   656,   657,   658
   659,   660,   661,   662,   663,   664,   665,   666,   667,   668,   669,   670,   671,   672,   673,   674
   675,   676,   677,   678,   679,   680,   681,   682,   683,   684,   685,   686,   687,   688,   689,   690
   691,   692,   693,   694,   695,   696,   697,   698,   699,   700,   701,   702,   703,   704,   705,   706
   707,   708,   709,   710,   711,   712,   713,   714,   715,   716,   717,   718,   719,   720,   721,   722
   723,   724,   725,   726,   727,   728,   729,   730,  1174,  1175,  1176,  1177,  1178,  1179,  1180,  1181
  1182,  1183,  1184,  1185,  1186,  1187,  1188,  1189,  1190,  1191,  1192,  1193,  1194,  1195,  1196,  1197
  1198,  1199,  1200,  1201,  1202,  1203,  1204,  1205,  1206,  1207,  1208,  1209,  1210,  1211,  1212,  1213
** ... 176 like lines cut
*Elset, elset=composite_int, instance=Part-1-1
 2341, 2342, 2343, 2344, 2345, 2346, 2347, 2348, 2349, 2350, 2351, 2352, 2353, 2354, 2355, 2356
 2357, 2358, 2359, 2360, 2361, 2362, 2363, 2364, 2365, 2366, 2367, 2368, 2369, 2370, 2371, 2372
 2373, 2374, 2375, 2376, 2377, 2378, 2379, 2380, 2381, 2382, 2383, 2384, 2385, 2386, 2387, 2388
 2389, 2390, 2391, 2392, 2393, 2394, 2395, 2396, 2397, 2398, 2399, 2400, 2401, 2402, 2403, 2404
 2405, 2406, 2407, 2408, 2409, 2410, 2411, 2412, 2413, 2414, 2415, 2416, 2417, 2418, 2419, 2420
 2421, 2422, 2423, 2424, 2425, 2426, 2427, 2428, 2429, 2430, 2431, 2432, 2433, 2434, 2435, 2436
 2437, 2438, 2439, 2440, 2441, 2442, 2443, 2444, 2445, 2446, 2447, 2448, 2449, 2450, 2451, 2452
 2453, 2454, 2455, 2456, 2457, 2458, 2459, 2460, 2461, 2462, 2463, 2464, 2465, 2466, 2467, 2468
 2469, 2470, 2471, 2472, 2473, 2474, 2475, 2476, 2477, 2478, 2479, 2480, 2481, 2482, 2483, 2484
 2485, 2486, 2487, 2488, 2489, 2490, 2491, 2492, 2493, 2494, 2495, 2496, 2497, 2498, 2499, 2500
 2501, 2502, 2503, 2504, 2505, 2506, 2507, 2508, 2509, 2510, 2511, 2512, 2513, 2514, 2515, 2516
 2517, 2518, 2519, 2520, 2521, 2522, 2523, 2524, 2525, 2526, 2527, 2528, 2529, 2530, 2531, 2532
 2533, 2534, 2535, 2536, 2537, 2538, 2539, 2540, 2541, 2542, 2543, 2544, 2545, 2546, 2547, 2548
 2549, 2550, 2551, 2552, 2553, 2554, 2555, 2556, 2557, 2558, 2559, 2560, 2561, 2562, 2563, 2564
 2565, 2566, 2567, 2568, 2569, 2570, 2571, 2572, 2573, 2574, 2575, 2576, 2577, 2578, 2579, 2580
 2581, 2582, 2583, 2584, 2585, 2586, 2587, 2588, 2589, 2590, 2591, 2592, 2593, 2594, 2595, 2596
 2597, 2598, 2599, 2600, 2601, 2602, 2603, 2604, 2605, 2606, 2607, 2608, 2609, 2610, 2611, 2612
 2613, 2614, 2615, 2616, 2617, 2618, 2619, 2620, 2621, 2622, 2623, 2624, 2625, 2626, 2627, 2628
 2629, 2630, 2631, 2632, 2633, 2634, 2635, 2636, 2637, 2638, 2639, 2640, 2641, 2642, 2643, 2644
 2645, 2646, 2647, 2648, 2649, 2650, 2651, 2652, 2653, 2654, 2655, 2656, 2657, 2658, 2659, 2660
** ... 72 like lines cut
*Nset, nset=cohesive_int, instance=Part-1-1
    17,    18,    19,    20,    21,    22,    23,    24,    37,    38,    39,    40,    60,    61,    62,    63
    75,    76,    77,    78,   601,   602,   603,   604,   605,   606,   607,   608,   609,   610,   611,   612
   613,   614,   615,   616,   617,   618,   619,   620,   621,   622,   623,   624,   625,   626,   627,   628
   629,   630,   631,   632,   633,   634,   635,   636,   637,   638,   639,   640,   641,   642,   643,   644
   645,   646,   647,   648,   649,   650,   651,   652,   653,   654,   655,   656,   657,   658,   659,   660
   661,   662,   663,   664,   665,   666,   667,   668,   669,   670,   671,   672,   673,   674,   675,   676
   677,   678,   679,   680,   681,   682,   683,   684,   685,   686,   687,   688,   689,   690,   691,   692
   693,   694,   695,   696,   697,   698,   699,   700,   701,   702,   703,   704,   705,   706,   707,   708
   709,   710,   711,   712,   713,   714,   715,   716,   717,   718,   719,   720,   721,   722,   723,   724
   725,   726,   727,   728,   729,   730,   731,   732,   733,   734,   735,   736,   737,   738,   739,   740
   741,   742,   743,   744,   745,   746,   747,   748,   749,   750,   751,   752,   753,   754,   755,   756
   757,   758,   759,   760,   761,   762,   763,   764,   765,   766,   767,   768,   769,   770,   771,   772
   773,   774,   775,   776,   777,   778,   779,   780,   781,   782,   783,   784,   785,   786,   787,   788
   789,   790,   791,   792,   793,   794,   795,   796,   797,   798,   799,   800,   801,   802,   803,   804
   805,   806,   807,   808,   809,   810,   811,   812,   813,   814,   815,   816,   817,   818,   819,   820
   821,   822,   823,   824,   825,   826,   827,   828,   829,   830,   831,   832,   833,   834,   835,   836
   837,   838,   839,   840,   841,   842,   843,   844,   845,   846,   847,   848,   849,   850,   851,   852
   853,   854,   855,   856,   857,   858,   859,   860,  1235,  1236,  1237,  1238,  1239,  1240,  1241,  1242
  1243,  1244,  1245,  1246,  1247,  1248,  1249,  1250,  1251,  1252,  1253,  1254,  1255,  1256,  1257,  1258
  1259,  1260,  1261,  1262,  1263,  1264,  1265,  1266,  1267,  1268,  1269,  1270,  1271,  1272,  1273,  1274
** ... 176 like lines cut
*Elset, elset=cohesive_int, instance=Part-1-1
  3121,  3122,  3123,  3124,  3125,  3126,  3127,  3128,  3129,  3130,  3131,  3132,  3133,  3134,  3135,  3136
  3137,  3138,  3139,  3140,  3141,  3142,  3143,  3144,  3145,  3146,  3147,  3148,  3149,  3150,  3151,  3152
  3153,  3154,  3155,  3156,  3157,  3158,  3159,  3160,  3161,  3162,  3163,  3164,  3165,  3166,  3167,  3168
  3169,  3170,  3171,  3172,  3173,  3174,  3175,  3176,  3177,  3178,  3179,  3180,  3181,  3182,  3183,  3184
  3185,  3186,  3187,  3188,  3189,  3190,  3191,  3192,  3193,  3194,  3195,  3196,  3197,  3198,  3199,  3200
  3201,  3202,  3203,  3204,  3205,  3206,  3207,  3208,  3209,  3210,  3211,  3212,  3213,  3214,  3215,  3216
  3217,  3218,  3219,  3220,  3221,  3222,  3223,  3224,  3225,  3226,  3227,  3228,  3229,  3230,  3231,  3232
  3233,  3234,  3235,  3236,  3237,  3238,  3239,  3240,  3241,  3242,  3243,  3244,  3245,  3246,  3247,  3248
  3249,  3250,  3251,  3252,  3253,  3254,  3255,  3256,  3257,  3258,  3259,  3260,  3261,  3262,  3263,  3264
  3265,  3266,  3267,  3268,  3269,  3270,  3271,  3272,  3273,  3274,  3275,  3276,  3277,  3278,  3279,  3280
  3281,  3282,  3283,  3284,  3285,  3286,  3287,  3288,  3289,  3290,  3291,  3292,  3293,  3294,  3295,  3296
  3297,  3298,  3299,  3300,  3301,  3302,  3303,  3304,  3305,  3306,  3307,  3308,  3309,  3310,  3311,  3312
  3313,  3314,  3315,  3316,  3317,  3318,  3319,  3320,  3321,  3322,  3323,  3324,  3325,  3326,  3327,  3328
  3329,  3330,  3331,  3332,  3333,  3334,  3335,  3336,  3337,  3338,  3339,  3340,  3341,  3342,  3343,  3344
  3345,  3346,  3347,  3348,  3349,  3350,  3351,  3352,  3353,  3354,  3355,  3356,  3357,  3358,  3359,  3360
  3361,  3362,  3363,  3364,  3365,  3366,  3367,  3368,  3369,  3370,  3371,  3372,  3373,  3374,  3375,  3376
  3377,  3378,  3379,  3380,  3381,  3382,  3383,  3384,  3385,  3386,  3387,  3388,  3389,  3390,  3391,  3392
  3393,  3394,  3395,  3396,  3397,  3398,  3399,  3400,  3401,  3402,  3403,  3404,  3405,  3406,  3407,  3408
  3409,  3410,  3411,  3412,  3413,  3414,  3415,  3416,  3417,  3418,  3419,  3420,  3421,  3422,  3423,  3424
  3425,  3426,  3427,  3428,  3429,  3430,  3431,  3432,  3433,  3434,  3435,  3436,  3437,  3438,  3439,  3440
** ... 72 like lines cut
*Nset, nset=aluminum_int, instance=Part-1-1
    21,    22,    23,    24,    25,    26,    27,    28,    39,    40,    41,    42,    62,    63,    64,    65
    77,    78,    79,    80,   731,   732,   733,   734,   735,   736,   737,   738,   739,   740,   741,   742
   743,   744,   745,   746,   747,   748,   749,   750,   751,   752,   753,   754,   755,   756,   757,   758
   759,   760,   761,   762,   763,   764,   765,   766,   767,   768,   769,   770,   771,   772,   773,   774
   775,   776,   777,   778,   779,   780,   781,   782,   783,   784,   785,   786,   787,   788,   789,   790
   791,   792,   793,   794,   795,   796,   797,   798,   799,   800,   801,   802,   803,   804,   805,   806
   807,   808,   809,   810,   811,   812,   813,   814,   815,   816,   817,   818,   819,   820,   821,   822
   823,   824,   825,   826,   827,   828,   829,   830,   831,   832,   833,   834,   835,   836,   837,   838
   839,   840,   841,   842,   843,   844,   845,   846,   847,   848,   849,   850,   851,   852,   853,   854
   855,   856,   857,   858,   859,   860,   861,   862,   863,   864,   865,   866,   867,   868,   869,   870
   871,   872,   873,   874,   875,   876,   877,   878,   879,   880,   881,   882,   883,   884,   885,   886
   887,   888,   889,   890,   891,   892,   893,   894,   895,   896,   897,   898,   899,   900,   901,   902
   903,   904,   905,   906,   907,   908,   909,   910,   911,   912,   913,   914,   915,   916,   917,   918
   919,   920,   921,   922,   923,   924,   925,   926,   927,   928,   929,   930,   931,   932,   933,   934
   935,   936,   937,   938,   939,   940,   941,   942,   943,   944,   945,   946,   947,   948,   949,   950
   951,   952,   953,   954,   955,   956,   957,   958,   959,   960,   961,   962,   963,   964,   965,   966
   967,   968,   969,   970,   971,   972,   973,   974,   975,   976,   977,   978,   979,   980,   981,   982
   983,   984,   985,   986,   987,   988,   989,   990,  1296,  1297,  1298,  1299,  1300,  1301,  1302,  1303
  1304,  1305,  1306,  1307,  1308,  1309,  1310,  1311,  1312,  1313,  1314,  1315,  1316,  1317,  1318,  1319
  1320,  1321,  1322,  1323,  1324,  1325,  1326,  1327,  1328,  1329,  1330,  1331,  1332,  1333,  1334,  1335
** ... 176 like lines cut
*Elset, elset=aluminum_int, instance=Part-1-1
  3901,  3902,  3903,  3904,  3905,  3906,  3907,  3908,  3909,  3910,  3911,  3912,  3913,  3914,  3915,  3916
  3917,  3918,  3919,  3920,  3921,  3922,  3923,  3924,  3925,  3926,  3927,  3928,  3929,  3930,  3931,  3932
  3933,  3934,  3935,  3936,  3937,  3938,  3939,  3940,  3941,  3942,  3943,  3944,  3945,  3946,  3947,  3948
  3949,  3950,  3951,  3952,  3953,  3954,  3955,  3956,  3957,  3958,  3959,  3960,  3961,  3962,  3963,  3964
  3965,  3966,  3967,  3968,  3969,  3970,  3971,  3972,  3973,  3974,  3975,  3976,  3977,  3978,  3979,  3980
  3981,  3982,  3983,  3984,  3985,  3986,  3987,  3988,  3989,  3990,  3991,  3992,  3993,  3994,  3995,  3996
  3997,  3998,  3999,  4000,  4001,  4002,  4003,  4004,  4005,  4006,  4007,  4008,  4009,  4010,  4011,  4012
  4013,  4014,  4015,  4016,  4017,  4018,  4019,  4020,  4021,  4022,  4023,  4024,  4025,  4026,  4027,  4028
  4029,  4030,  4031,  4032,  4033,  4034,  4035,  4036,  4037,  4038,  4039,  4040,  4041,  4042,  4043,  4044
  4045,  4046,  4047,  4048,  4049,  4050,  4051,  4052,  4053,  4054,  4055,  4056,  4057,  4058,  4059,  4060
  4061,  4062,  4063,  4064,  4065,  4066,  4067,  4068,  4069,  4070,  4071,  4072,  4073,  4074,  4075,  4076
  4077,  4078,  4079,  4080,  4081,  4082,  4083,  4084,  4085,  4086,  4087,  4088,  4089,  4090,  4091,  4092
  4093,  4094,  4095,  4096,  4097,  4098,  4099,  4100,  4101,  4102,  4103,  4104,  4105,  4106,  4107,  4108
  4109,  4110,  4111,  4112,  4113,  4114,  4115,  4116,  4117,  4118,  4119,  4120,  4121,  4122,  4123,  4124
  4125,  4126,  4127,  4128,  4129,  4130,  4131,  4132,  4133,  4134,  4135,  4136,  4137,  4138,  4139,  4140
  4141,  4142,  4143,  4144,  4145,  4146,  4147,  4148,  4149,  4150,  4151,  4152,  4153,  4154,  4155,  4156
  4157,  4158,  4159,  4160,  4161,  4162,  4163,  4164,  4165,  4166,  4167,  4168,  4169,  4170,  4171,  4172
  4173,  4174,  4175,  4176,  4177,  4178,  4179,  4180,  4181,  4182,  4183,  4184,  4185,  4186,  4187,  4188
  4189,  4190,  4191,  4192,  4193,  4194,  4195,  4196,  4197,  4198,  4199,  4200,  4201,  4202,  4203,  4204
  4205,  4206,  4207,  4208,  4209,  4210,  4211,  4212,  4213,  4214,  4215,  4216,  4217,  4218,  4219,  4220
** ... 72 like lines cut
** Constraint: Constraint-1
*Equation
2
x-load, 1, 1.
x-ref, 1, -1.
*End Assembly
** 
** ELEMENT CONTROLS
** 
*Section Controls, name=EC-1,hourglass=STIFFNESS
1.0, 1.0, 1.0
*Amplitude, name=disp-amp, time=TOTAL TIME
0., 0., 1., 1.
** 
** MATERIALS
** 
*Material, name=aluminum
*Elastic
73800., 0.33
*Plastic
300.,      0.
320., 0.00016
340., 0.00047
355., 0.00119
375., 0.00449
390., 0.01036
410.,  0.0213
430., 0.03439
450., 0.05133
470.,    0.08
484.,  0.1471
*Material, name=cohesive
*Elastic,type=traction
2000e3,751.8796992e3,751.8796992e3
*damage initiation,criterion=quade
2.5e-5,6.65e-5,6.65e-5
*damage evolution,type=energy,mixed mode behavior=power,softening=exponential,mode mix ratio=energy,power=2
4,4,4
*Material, name=composite
*ELASTIC,TYPE=LAMINA
 55000., 9500.,0.33,5500.0,3000.0,3000.0
*DAMAGE INITIATION,CRITERION=HASHIN,ALPHA=0.0
   2500.0,  2000.0,  50.0,  150.0, 50.0,     75.0
** <X_T>    <X_C>   <Y_T>   <Y_C>  <S_L>     <S_T>
*DAMAGE EVOLUTION, TYPE=ENERGY, SOFTENING=LINEAR
 12.5,12.5,1.0,1.0
*DAMAGE STABILIZATION
   0.00025, 0.00025, 0.005, 0.005
** 
** BOUNDARY CONDITIONS
** 
** Name: bc-xsymm Type: Symmetry/Antisymmetry/Encastre
*Boundary
x-symm, XSYMM
** Name: bc-ysymm Type: Symmetry/Antisymmetry/Encastre
*Boundary
y-symm, YSYMM
** Name: bc-zsymm Type: Symmetry/Antisymmetry/Encastre
*Boundary
z-symm, ZSYMM
*time Points, Name=TpRf,gen
 0.0,0.15,0.01
 0.15,0.27,0.005
** ----------------------------------------------------------------
** 
** STEP: Step-1
** 
*Step, name=Step-1, nlgeom=YES, inc=1000, unsymm=YES, convert sdi=no
uniaxial loading
*Static
0.01, 0.23, 1.0e-08, 0.01
** 
** BOUNDARY CONDITIONS
** 
** Name: xload Type: Displacement/Rotation
*Boundary, amplitude=disp-amp
x-ref, 1, 1, 10.
** 
** OUTPUT REQUESTS
** 
*Restart, write, frequency=0
** 
** FIELD OUTPUT: F-Output-1
** 
*Output, field,freq=10
*Node Output
RF, U
*Element Output, elset=composite_ext, directions=YES
 DMICRT,
 DAMAGEFT,
 DAMAGEFC,
 DAMAGEMT,
 DAMAGEMC,
 S,
** 
** FIELD OUTPUT: F-Output-8
** 
*Element Output, elset=composite_int, directions=YES
 DMICRT,
 DAMAGEFT,
 DAMAGEFC,
 DAMAGEMT,
 DAMAGEMC,
 S,
*Element Output, elset=cohesive_ext, directions=YES
NE, SDEG
** 
** FIELD OUTPUT: F-Output-5
** 
*Element Output, elset=cohesive_int, directions=YES
NE, SDEG
** 
** FIELD OUTPUT: F-Output-6
** 
*Element Output, elset=cohesive_middle, directions=YES
NE, SDEG
*********************
*Output, history, freq=1
*Node Output, nset=x-ref
 RF1,
*Output, history, time point=TpRf
*Node Output, nset=x-ref
 U1
*End Step
